
---------- Begin Simulation Statistics ----------
sim_seconds                                  1.112017                       # Number of seconds simulated
sim_ticks                                1112017411000                       # Number of ticks simulated
final_tick                               1112017411000                       # Number of ticks from beginning of simulation (restored from checkpoints and never reset)
sim_freq                                 1000000000000                       # Frequency of simulated ticks
host_inst_rate                                 288893                       # Simulator instruction rate (inst/s)
host_op_rate                                   468477                       # Simulator op (including micro ops) rate (op/s)
host_tick_rate                              637295755                       # Simulator tick rate (ticks/s)
host_mem_usage                                 663664                       # Number of bytes of host memory used
host_seconds                                  1744.90                       # Real time elapsed on the host
sim_insts                                   504088751                       # Number of instructions simulated
sim_ops                                     817446081                       # Number of ops (including micro ops) simulated
system.voltage_domain.voltage                       1                       # Voltage in Volts
system.clk_domain.clock                          1000                       # Clock period in ticks
system.mem_ctrls.pwrStateResidencyTicks::UNDEFINED 1112017411000                       # Cumulative time (in ticks) in various power states
system.mem_ctrls.bytes_read::cpu.inst           22656                       # Number of bytes read from this memory
system.mem_ctrls.bytes_read::cpu.data        17903872                       # Number of bytes read from this memory
system.mem_ctrls.bytes_read::total           17926528                       # Number of bytes read from this memory
system.mem_ctrls.bytes_inst_read::cpu.inst        22656                       # Number of instructions bytes read from this memory
system.mem_ctrls.bytes_inst_read::total         22656                       # Number of instructions bytes read from this memory
system.mem_ctrls.bytes_written::writebacks     16446400                       # Number of bytes written to this memory
system.mem_ctrls.bytes_written::total        16446400                       # Number of bytes written to this memory
system.mem_ctrls.num_reads::cpu.inst              354                       # Number of read requests responded to by this memory
system.mem_ctrls.num_reads::cpu.data           279748                       # Number of read requests responded to by this memory
system.mem_ctrls.num_reads::total              280102                       # Number of read requests responded to by this memory
system.mem_ctrls.num_writes::writebacks        256975                       # Number of write requests responded to by this memory
system.mem_ctrls.num_writes::total             256975                       # Number of write requests responded to by this memory
system.mem_ctrls.bw_read::cpu.inst              20374                       # Total read bandwidth from this memory (bytes/s)
system.mem_ctrls.bw_read::cpu.data           16100352                       # Total read bandwidth from this memory (bytes/s)
system.mem_ctrls.bw_read::total              16120726                       # Total read bandwidth from this memory (bytes/s)
system.mem_ctrls.bw_inst_read::cpu.inst         20374                       # Instruction read bandwidth from this memory (bytes/s)
system.mem_ctrls.bw_inst_read::total            20374                       # Instruction read bandwidth from this memory (bytes/s)
system.mem_ctrls.bw_write::writebacks        14789696                       # Write bandwidth from this memory (bytes/s)
system.mem_ctrls.bw_write::total             14789696                       # Write bandwidth from this memory (bytes/s)
system.mem_ctrls.bw_total::writebacks        14789696                       # Total bandwidth to/from this memory (bytes/s)
system.mem_ctrls.bw_total::cpu.inst             20374                       # Total bandwidth to/from this memory (bytes/s)
system.mem_ctrls.bw_total::cpu.data          16100352                       # Total bandwidth to/from this memory (bytes/s)
system.mem_ctrls.bw_total::total             30910422                       # Total bandwidth to/from this memory (bytes/s)
system.pwrStateResidencyTicks::UNDEFINED 1112017411000                       # Cumulative time (in ticks) in various power states
system.cpu_voltage_domain.voltage                   1                       # Voltage in Volts
system.cpu_clk_domain.clock                       500                       # Clock period in ticks
system.cpu.dtb.walker.pwrStateResidencyTicks::UNDEFINED 1112017411000                       # Cumulative time (in ticks) in various power states
system.cpu.dtb.rdAccesses                   238245975                       # TLB accesses on read requests
system.cpu.dtb.wrAccesses                    64374646                       # TLB accesses on write requests
system.cpu.dtb.rdMisses                          5921                       # TLB misses on read requests
system.cpu.dtb.wrMisses                           999                       # TLB misses on write requests
system.cpu.apic_clk_domain.clock                 8000                       # Clock period in ticks
system.cpu.interrupts.pwrStateResidencyTicks::UNDEFINED 1112017411000                       # Cumulative time (in ticks) in various power states
system.cpu.itb.walker.pwrStateResidencyTicks::UNDEFINED 1112017411000                       # Cumulative time (in ticks) in various power states
system.cpu.itb.rdAccesses                           0                       # TLB accesses on read requests
system.cpu.itb.wrAccesses                   677335181                       # TLB accesses on write requests
system.cpu.itb.rdMisses                             0                       # TLB misses on read requests
system.cpu.itb.wrMisses                            35                       # TLB misses on write requests
system.cpu.workload.numSyscalls                     9                       # Number of system calls
system.cpu.pwrStateResidencyTicks::ON    1112017411000                       # Cumulative time (in ticks) in various power states
system.cpu.numCycles                       2224034822                       # number of cpu cycles simulated
system.cpu.numWorkItemsStarted                      0                       # number of work items this cpu started
system.cpu.numWorkItemsCompleted                    0                       # number of work items this cpu completed
system.cpu.committedInsts                   504088751                       # Number of instructions committed
system.cpu.committedOps                     817446081                       # Number of ops (including micro ops) committed
system.cpu.num_int_alu_accesses             812629962                       # Number of integer alu accesses
system.cpu.num_fp_alu_accesses                   1943                       # Number of float alu accesses
system.cpu.num_vec_alu_accesses                     0                       # Number of vector alu accesses
system.cpu.num_func_calls                     9452832                       # number of times a function call or return occured
system.cpu.num_conditional_control_insts     46565887                       # number of instructions that are conditional controls
system.cpu.num_int_insts                    812629962                       # number of integer instructions
system.cpu.num_fp_insts                          1943                       # number of float instructions
system.cpu.num_vec_insts                            0                       # number of vector instructions
system.cpu.num_int_register_reads          1822855533                       # number of times the integer registers were read
system.cpu.num_int_register_writes          705741295                       # number of times the integer registers were written
system.cpu.num_fp_register_reads                 3767                       # number of times the floating registers were read
system.cpu.num_fp_register_writes                1480                       # number of times the floating registers were written
system.cpu.num_vec_register_reads                   0                       # number of times the vector registers were read
system.cpu.num_vec_register_writes                  0                       # number of times the vector registers were written
system.cpu.num_cc_register_reads            297557760                       # number of times the CC registers were read
system.cpu.num_cc_register_writes           279904580                       # number of times the CC registers were written
system.cpu.num_mem_refs                     302620620                       # number of memory refs
system.cpu.num_load_insts                   238245974                       # Number of load instructions
system.cpu.num_store_insts                   64374646                       # Number of store instructions
system.cpu.num_idle_cycles                          0                       # Number of idle cycles
system.cpu.num_busy_cycles                 2224034822                       # Number of busy cycles
system.cpu.not_idle_fraction                        1                       # Percentage of non-idle cycles
system.cpu.idle_fraction                            0                       # Percentage of idle cycles
system.cpu.Branches                          60772143                       # Number of branches fetched
system.cpu.op_class::No_OpClass               1362109      0.17%      0.17% # Class of executed instruction
system.cpu.op_class::IntAlu                 505014342     61.78%     61.95% # Class of executed instruction
system.cpu.op_class::IntMult                        4      0.00%     61.95% # Class of executed instruction
system.cpu.op_class::IntDiv                   8448046      1.03%     62.98% # Class of executed instruction
system.cpu.op_class::FloatAdd                      10      0.00%     62.98% # Class of executed instruction
system.cpu.op_class::FloatCmp                       0      0.00%     62.98% # Class of executed instruction
system.cpu.op_class::FloatCvt                       0      0.00%     62.98% # Class of executed instruction
system.cpu.op_class::FloatMult                      0      0.00%     62.98% # Class of executed instruction
system.cpu.op_class::FloatMultAcc                   0      0.00%     62.98% # Class of executed instruction
system.cpu.op_class::FloatDiv                       0      0.00%     62.98% # Class of executed instruction
system.cpu.op_class::FloatMisc                      0      0.00%     62.98% # Class of executed instruction
system.cpu.op_class::FloatSqrt                      0      0.00%     62.98% # Class of executed instruction
system.cpu.op_class::SimdAdd                      374      0.00%     62.98% # Class of executed instruction
system.cpu.op_class::SimdAddAcc                     0      0.00%     62.98% # Class of executed instruction
system.cpu.op_class::SimdAlu                       68      0.00%     62.98% # Class of executed instruction
system.cpu.op_class::SimdCmp                        0      0.00%     62.98% # Class of executed instruction
system.cpu.op_class::SimdCvt                      108      0.00%     62.98% # Class of executed instruction
system.cpu.op_class::SimdMisc                     214      0.00%     62.98% # Class of executed instruction
system.cpu.op_class::SimdMult                       0      0.00%     62.98% # Class of executed instruction
system.cpu.op_class::SimdMultAcc                    0      0.00%     62.98% # Class of executed instruction
system.cpu.op_class::SimdShift                    186      0.00%     62.98% # Class of executed instruction
system.cpu.op_class::SimdShiftAcc                   0      0.00%     62.98% # Class of executed instruction
system.cpu.op_class::SimdSqrt                       0      0.00%     62.98% # Class of executed instruction
system.cpu.op_class::SimdFloatAdd                   0      0.00%     62.98% # Class of executed instruction
system.cpu.op_class::SimdFloatAlu                   0      0.00%     62.98% # Class of executed instruction
system.cpu.op_class::SimdFloatCmp                   0      0.00%     62.98% # Class of executed instruction
system.cpu.op_class::SimdFloatCvt                   0      0.00%     62.98% # Class of executed instruction
system.cpu.op_class::SimdFloatDiv                   0      0.00%     62.98% # Class of executed instruction
system.cpu.op_class::SimdFloatMisc                  0      0.00%     62.98% # Class of executed instruction
system.cpu.op_class::SimdFloatMult                  0      0.00%     62.98% # Class of executed instruction
system.cpu.op_class::SimdFloatMultAcc               0      0.00%     62.98% # Class of executed instruction
system.cpu.op_class::SimdFloatSqrt                  0      0.00%     62.98% # Class of executed instruction
system.cpu.op_class::MemRead                238245918     29.15%     92.12% # Class of executed instruction
system.cpu.op_class::MemWrite                64374231      7.88%    100.00% # Class of executed instruction
system.cpu.op_class::FloatMemRead                  56      0.00%    100.00% # Class of executed instruction
system.cpu.op_class::FloatMemWrite                415      0.00%    100.00% # Class of executed instruction
system.cpu.op_class::IprAccess                      0      0.00%    100.00% # Class of executed instruction
system.cpu.op_class::InstPrefetch                   0      0.00%    100.00% # Class of executed instruction
system.cpu.op_class::total                  817446081                       # Class of executed instruction
system.cpu.dcache.tags.pwrStateResidencyTicks::UNDEFINED 1112017411000                       # Cumulative time (in ticks) in various power states
system.cpu.dcache.tags.tagsinuse           511.823922                       # Cycle average of tags in use
system.cpu.dcache.tags.total_refs           302620621                       # Total number of references to valid blocks.
system.cpu.dcache.tags.sampled_refs            682607                       # Sample count of references to valid blocks.
system.cpu.dcache.tags.avg_refs            443.330673                       # Average number of references to valid blocks.
system.cpu.dcache.tags.warmup_cycle            765000                       # Cycle when the warmup percentage was hit.
system.cpu.dcache.tags.occ_blocks::cpu.data   511.823922                       # Average occupied blocks per requestor
system.cpu.dcache.tags.occ_percent::cpu.data     0.999656                       # Average percentage of cache occupancy
system.cpu.dcache.tags.occ_percent::total     0.999656                       # Average percentage of cache occupancy
system.cpu.dcache.tags.occ_task_id_blocks::1024          512                       # Occupied blocks per task id
system.cpu.dcache.tags.age_task_id_blocks_1024::0           11                       # Occupied blocks per task id
system.cpu.dcache.tags.age_task_id_blocks_1024::1           18                       # Occupied blocks per task id
system.cpu.dcache.tags.age_task_id_blocks_1024::2           54                       # Occupied blocks per task id
system.cpu.dcache.tags.age_task_id_blocks_1024::3          422                       # Occupied blocks per task id
system.cpu.dcache.tags.age_task_id_blocks_1024::4            7                       # Occupied blocks per task id
system.cpu.dcache.tags.occ_task_id_percent::1024            1                       # Percentage of cache occupancy per task id
system.cpu.dcache.tags.tag_accesses         605923849                       # Number of tag accesses
system.cpu.dcache.tags.data_accesses        605923849                       # Number of data accesses
system.cpu.dcache.pwrStateResidencyTicks::UNDEFINED 1112017411000                       # Cumulative time (in ticks) in various power states
system.cpu.dcache.ReadReq_hits::cpu.data    237629879                       # number of ReadReq hits
system.cpu.dcache.ReadReq_hits::total       237629879                       # number of ReadReq hits
system.cpu.dcache.WriteReq_hits::cpu.data     64088069                       # number of WriteReq hits
system.cpu.dcache.WriteReq_hits::total       64088069                       # number of WriteReq hits
system.cpu.dcache.demand_hits::cpu.data     301717948                       # number of demand (read+write) hits
system.cpu.dcache.demand_hits::total        301717948                       # number of demand (read+write) hits
system.cpu.dcache.overall_hits::cpu.data    301717948                       # number of overall hits
system.cpu.dcache.overall_hits::total       301717948                       # number of overall hits
system.cpu.dcache.ReadReq_misses::cpu.data       616096                       # number of ReadReq misses
system.cpu.dcache.ReadReq_misses::total        616096                       # number of ReadReq misses
system.cpu.dcache.WriteReq_misses::cpu.data       286577                       # number of WriteReq misses
system.cpu.dcache.WriteReq_misses::total       286577                       # number of WriteReq misses
system.cpu.dcache.demand_misses::cpu.data       902673                       # number of demand (read+write) misses
system.cpu.dcache.demand_misses::total         902673                       # number of demand (read+write) misses
system.cpu.dcache.overall_misses::cpu.data       902673                       # number of overall misses
system.cpu.dcache.overall_misses::total        902673                       # number of overall misses
system.cpu.dcache.ReadReq_miss_latency::cpu.data 109718010000                       # number of ReadReq miss cycles
system.cpu.dcache.ReadReq_miss_latency::total 109718010000                       # number of ReadReq miss cycles
system.cpu.dcache.WriteReq_miss_latency::cpu.data  23181662000                       # number of WriteReq miss cycles
system.cpu.dcache.WriteReq_miss_latency::total  23181662000                       # number of WriteReq miss cycles
system.cpu.dcache.demand_miss_latency::cpu.data 132899672000                       # number of demand (read+write) miss cycles
system.cpu.dcache.demand_miss_latency::total 132899672000                       # number of demand (read+write) miss cycles
system.cpu.dcache.overall_miss_latency::cpu.data 132899672000                       # number of overall miss cycles
system.cpu.dcache.overall_miss_latency::total 132899672000                       # number of overall miss cycles
system.cpu.dcache.ReadReq_accesses::cpu.data    238245975                       # number of ReadReq accesses(hits+misses)
system.cpu.dcache.ReadReq_accesses::total    238245975                       # number of ReadReq accesses(hits+misses)
system.cpu.dcache.WriteReq_accesses::cpu.data     64374646                       # number of WriteReq accesses(hits+misses)
system.cpu.dcache.WriteReq_accesses::total     64374646                       # number of WriteReq accesses(hits+misses)
system.cpu.dcache.demand_accesses::cpu.data    302620621                       # number of demand (read+write) accesses
system.cpu.dcache.demand_accesses::total    302620621                       # number of demand (read+write) accesses
system.cpu.dcache.overall_accesses::cpu.data    302620621                       # number of overall (read+write) accesses
system.cpu.dcache.overall_accesses::total    302620621                       # number of overall (read+write) accesses
system.cpu.dcache.ReadReq_miss_rate::cpu.data     0.002586                       # miss rate for ReadReq accesses
system.cpu.dcache.ReadReq_miss_rate::total     0.002586                       # miss rate for ReadReq accesses
system.cpu.dcache.WriteReq_miss_rate::cpu.data     0.004452                       # miss rate for WriteReq accesses
system.cpu.dcache.WriteReq_miss_rate::total     0.004452                       # miss rate for WriteReq accesses
system.cpu.dcache.demand_miss_rate::cpu.data     0.002983                       # miss rate for demand accesses
system.cpu.dcache.demand_miss_rate::total     0.002983                       # miss rate for demand accesses
system.cpu.dcache.overall_miss_rate::cpu.data     0.002983                       # miss rate for overall accesses
system.cpu.dcache.overall_miss_rate::total     0.002983                       # miss rate for overall accesses
system.cpu.dcache.ReadReq_avg_miss_latency::cpu.data 178085.898951                       # average ReadReq miss latency
system.cpu.dcache.ReadReq_avg_miss_latency::total 178085.898951                       # average ReadReq miss latency
system.cpu.dcache.WriteReq_avg_miss_latency::cpu.data 80891.564920                       # average WriteReq miss latency
system.cpu.dcache.WriteReq_avg_miss_latency::total 80891.564920                       # average WriteReq miss latency
system.cpu.dcache.demand_avg_miss_latency::cpu.data 147229.031997                       # average overall miss latency
system.cpu.dcache.demand_avg_miss_latency::total 147229.031997                       # average overall miss latency
system.cpu.dcache.overall_avg_miss_latency::cpu.data 147229.031997                       # average overall miss latency
system.cpu.dcache.overall_avg_miss_latency::total 147229.031997                       # average overall miss latency
system.cpu.dcache.blocked_cycles::no_mshrs            0                       # number of cycles access was blocked
system.cpu.dcache.blocked_cycles::no_targets            0                       # number of cycles access was blocked
system.cpu.dcache.blocked::no_mshrs                 0                       # number of cycles access was blocked
system.cpu.dcache.blocked::no_targets               0                       # number of cycles access was blocked
system.cpu.dcache.avg_blocked_cycles::no_mshrs          nan                       # average number of cycles each access was blocked
system.cpu.dcache.avg_blocked_cycles::no_targets          nan                       # average number of cycles each access was blocked
system.cpu.dcache.writebacks::writebacks       657658                       # number of writebacks
system.cpu.dcache.writebacks::total            657658                       # number of writebacks
system.cpu.dcache.ReadReq_mshr_misses::cpu.data       616096                       # number of ReadReq MSHR misses
system.cpu.dcache.ReadReq_mshr_misses::total       616096                       # number of ReadReq MSHR misses
system.cpu.dcache.WriteReq_mshr_misses::cpu.data       286577                       # number of WriteReq MSHR misses
system.cpu.dcache.WriteReq_mshr_misses::total       286577                       # number of WriteReq MSHR misses
system.cpu.dcache.demand_mshr_misses::cpu.data       902673                       # number of demand (read+write) MSHR misses
system.cpu.dcache.demand_mshr_misses::total       902673                       # number of demand (read+write) MSHR misses
system.cpu.dcache.overall_mshr_misses::cpu.data       902673                       # number of overall MSHR misses
system.cpu.dcache.overall_mshr_misses::total       902673                       # number of overall MSHR misses
system.cpu.dcache.ReadReq_mshr_miss_latency::cpu.data 109101914000                       # number of ReadReq MSHR miss cycles
system.cpu.dcache.ReadReq_mshr_miss_latency::total 109101914000                       # number of ReadReq MSHR miss cycles
system.cpu.dcache.WriteReq_mshr_miss_latency::cpu.data  22895085000                       # number of WriteReq MSHR miss cycles
system.cpu.dcache.WriteReq_mshr_miss_latency::total  22895085000                       # number of WriteReq MSHR miss cycles
system.cpu.dcache.demand_mshr_miss_latency::cpu.data 131996999000                       # number of demand (read+write) MSHR miss cycles
system.cpu.dcache.demand_mshr_miss_latency::total 131996999000                       # number of demand (read+write) MSHR miss cycles
system.cpu.dcache.overall_mshr_miss_latency::cpu.data 131996999000                       # number of overall MSHR miss cycles
system.cpu.dcache.overall_mshr_miss_latency::total 131996999000                       # number of overall MSHR miss cycles
system.cpu.dcache.ReadReq_mshr_miss_rate::cpu.data     0.002586                       # mshr miss rate for ReadReq accesses
system.cpu.dcache.ReadReq_mshr_miss_rate::total     0.002586                       # mshr miss rate for ReadReq accesses
system.cpu.dcache.WriteReq_mshr_miss_rate::cpu.data     0.004452                       # mshr miss rate for WriteReq accesses
system.cpu.dcache.WriteReq_mshr_miss_rate::total     0.004452                       # mshr miss rate for WriteReq accesses
system.cpu.dcache.demand_mshr_miss_rate::cpu.data     0.002983                       # mshr miss rate for demand accesses
system.cpu.dcache.demand_mshr_miss_rate::total     0.002983                       # mshr miss rate for demand accesses
system.cpu.dcache.overall_mshr_miss_rate::cpu.data     0.002983                       # mshr miss rate for overall accesses
system.cpu.dcache.overall_mshr_miss_rate::total     0.002983                       # mshr miss rate for overall accesses
system.cpu.dcache.ReadReq_avg_mshr_miss_latency::cpu.data 177085.898951                       # average ReadReq mshr miss latency
system.cpu.dcache.ReadReq_avg_mshr_miss_latency::total 177085.898951                       # average ReadReq mshr miss latency
system.cpu.dcache.WriteReq_avg_mshr_miss_latency::cpu.data 79891.564920                       # average WriteReq mshr miss latency
system.cpu.dcache.WriteReq_avg_mshr_miss_latency::total 79891.564920                       # average WriteReq mshr miss latency
system.cpu.dcache.demand_avg_mshr_miss_latency::cpu.data 146229.031997                       # average overall mshr miss latency
system.cpu.dcache.demand_avg_mshr_miss_latency::total 146229.031997                       # average overall mshr miss latency
system.cpu.dcache.overall_avg_mshr_miss_latency::cpu.data 146229.031997                       # average overall mshr miss latency
system.cpu.dcache.overall_avg_mshr_miss_latency::total 146229.031997                       # average overall mshr miss latency
system.cpu.dcache.replacements                 682095                       # number of replacements
system.cpu.dtb_walker_cache.tags.pwrStateResidencyTicks::UNDEFINED 1112017411000                       # Cumulative time (in ticks) in various power states
system.cpu.dtb_walker_cache.tags.tagsinuse            0                       # Cycle average of tags in use
system.cpu.dtb_walker_cache.tags.total_refs            0                       # Total number of references to valid blocks.
system.cpu.dtb_walker_cache.tags.sampled_refs            0                       # Sample count of references to valid blocks.
system.cpu.dtb_walker_cache.tags.avg_refs          nan                       # Average number of references to valid blocks.
system.cpu.dtb_walker_cache.tags.warmup_cycle            0                       # Cycle when the warmup percentage was hit.
system.cpu.dtb_walker_cache.tags.tag_accesses            0                       # Number of tag accesses
system.cpu.dtb_walker_cache.tags.data_accesses            0                       # Number of data accesses
system.cpu.dtb_walker_cache.pwrStateResidencyTicks::UNDEFINED 1112017411000                       # Cumulative time (in ticks) in various power states
system.cpu.dtb_walker_cache.blocked_cycles::no_mshrs            0                       # number of cycles access was blocked
system.cpu.dtb_walker_cache.blocked_cycles::no_targets            0                       # number of cycles access was blocked
system.cpu.dtb_walker_cache.blocked::no_mshrs            0                       # number of cycles access was blocked
system.cpu.dtb_walker_cache.blocked::no_targets            0                       # number of cycles access was blocked
system.cpu.dtb_walker_cache.avg_blocked_cycles::no_mshrs          nan                       # average number of cycles each access was blocked
system.cpu.dtb_walker_cache.avg_blocked_cycles::no_targets          nan                       # average number of cycles each access was blocked
system.cpu.dtb_walker_cache.replacements            0                       # number of replacements
system.cpu.icache.tags.pwrStateResidencyTicks::UNDEFINED 1112017411000                       # Cumulative time (in ticks) in various power states
system.cpu.icache.tags.tagsinuse           279.477093                       # Cycle average of tags in use
system.cpu.icache.tags.total_refs           677335181                       # Total number of references to valid blocks.
system.cpu.icache.tags.sampled_refs               354                       # Sample count of references to valid blocks.
system.cpu.icache.tags.avg_refs          1913376.217514                       # Average number of references to valid blocks.
system.cpu.icache.tags.warmup_cycle            445000                       # Cycle when the warmup percentage was hit.
system.cpu.icache.tags.occ_blocks::cpu.inst   279.477093                       # Average occupied blocks per requestor
system.cpu.icache.tags.occ_percent::cpu.inst     0.545854                       # Average percentage of cache occupancy
system.cpu.icache.tags.occ_percent::total     0.545854                       # Average percentage of cache occupancy
system.cpu.icache.tags.occ_task_id_blocks::1024          306                       # Occupied blocks per task id
system.cpu.icache.tags.age_task_id_blocks_1024::0           20                       # Occupied blocks per task id
system.cpu.icache.tags.age_task_id_blocks_1024::1           19                       # Occupied blocks per task id
system.cpu.icache.tags.age_task_id_blocks_1024::4          267                       # Occupied blocks per task id
system.cpu.icache.tags.occ_task_id_percent::1024     0.597656                       # Percentage of cache occupancy per task id
system.cpu.icache.tags.tag_accesses        1354670716                       # Number of tag accesses
system.cpu.icache.tags.data_accesses       1354670716                       # Number of data accesses
system.cpu.icache.pwrStateResidencyTicks::UNDEFINED 1112017411000                       # Cumulative time (in ticks) in various power states
system.cpu.icache.ReadReq_hits::cpu.inst    677334827                       # number of ReadReq hits
system.cpu.icache.ReadReq_hits::total       677334827                       # number of ReadReq hits
system.cpu.icache.demand_hits::cpu.inst     677334827                       # number of demand (read+write) hits
system.cpu.icache.demand_hits::total        677334827                       # number of demand (read+write) hits
system.cpu.icache.overall_hits::cpu.inst    677334827                       # number of overall hits
system.cpu.icache.overall_hits::total       677334827                       # number of overall hits
system.cpu.icache.ReadReq_misses::cpu.inst          354                       # number of ReadReq misses
system.cpu.icache.ReadReq_misses::total           354                       # number of ReadReq misses
system.cpu.icache.demand_misses::cpu.inst          354                       # number of demand (read+write) misses
system.cpu.icache.demand_misses::total            354                       # number of demand (read+write) misses
system.cpu.icache.overall_misses::cpu.inst          354                       # number of overall misses
system.cpu.icache.overall_misses::total           354                       # number of overall misses
system.cpu.icache.ReadReq_miss_latency::cpu.inst     64966000                       # number of ReadReq miss cycles
system.cpu.icache.ReadReq_miss_latency::total     64966000                       # number of ReadReq miss cycles
system.cpu.icache.demand_miss_latency::cpu.inst     64966000                       # number of demand (read+write) miss cycles
system.cpu.icache.demand_miss_latency::total     64966000                       # number of demand (read+write) miss cycles
system.cpu.icache.overall_miss_latency::cpu.inst     64966000                       # number of overall miss cycles
system.cpu.icache.overall_miss_latency::total     64966000                       # number of overall miss cycles
system.cpu.icache.ReadReq_accesses::cpu.inst    677335181                       # number of ReadReq accesses(hits+misses)
system.cpu.icache.ReadReq_accesses::total    677335181                       # number of ReadReq accesses(hits+misses)
system.cpu.icache.demand_accesses::cpu.inst    677335181                       # number of demand (read+write) accesses
system.cpu.icache.demand_accesses::total    677335181                       # number of demand (read+write) accesses
system.cpu.icache.overall_accesses::cpu.inst    677335181                       # number of overall (read+write) accesses
system.cpu.icache.overall_accesses::total    677335181                       # number of overall (read+write) accesses
system.cpu.icache.ReadReq_miss_rate::cpu.inst     0.000001                       # miss rate for ReadReq accesses
system.cpu.icache.ReadReq_miss_rate::total     0.000001                       # miss rate for ReadReq accesses
system.cpu.icache.demand_miss_rate::cpu.inst     0.000001                       # miss rate for demand accesses
system.cpu.icache.demand_miss_rate::total     0.000001                       # miss rate for demand accesses
system.cpu.icache.overall_miss_rate::cpu.inst     0.000001                       # miss rate for overall accesses
system.cpu.icache.overall_miss_rate::total     0.000001                       # miss rate for overall accesses
system.cpu.icache.ReadReq_avg_miss_latency::cpu.inst 183519.774011                       # average ReadReq miss latency
system.cpu.icache.ReadReq_avg_miss_latency::total 183519.774011                       # average ReadReq miss latency
system.cpu.icache.demand_avg_miss_latency::cpu.inst 183519.774011                       # average overall miss latency
system.cpu.icache.demand_avg_miss_latency::total 183519.774011                       # average overall miss latency
system.cpu.icache.overall_avg_miss_latency::cpu.inst 183519.774011                       # average overall miss latency
system.cpu.icache.overall_avg_miss_latency::total 183519.774011                       # average overall miss latency
system.cpu.icache.blocked_cycles::no_mshrs            0                       # number of cycles access was blocked
system.cpu.icache.blocked_cycles::no_targets            0                       # number of cycles access was blocked
system.cpu.icache.blocked::no_mshrs                 0                       # number of cycles access was blocked
system.cpu.icache.blocked::no_targets               0                       # number of cycles access was blocked
system.cpu.icache.avg_blocked_cycles::no_mshrs          nan                       # average number of cycles each access was blocked
system.cpu.icache.avg_blocked_cycles::no_targets          nan                       # average number of cycles each access was blocked
system.cpu.icache.ReadReq_mshr_misses::cpu.inst          354                       # number of ReadReq MSHR misses
system.cpu.icache.ReadReq_mshr_misses::total          354                       # number of ReadReq MSHR misses
system.cpu.icache.demand_mshr_misses::cpu.inst          354                       # number of demand (read+write) MSHR misses
system.cpu.icache.demand_mshr_misses::total          354                       # number of demand (read+write) MSHR misses
system.cpu.icache.overall_mshr_misses::cpu.inst          354                       # number of overall MSHR misses
system.cpu.icache.overall_mshr_misses::total          354                       # number of overall MSHR misses
system.cpu.icache.ReadReq_mshr_miss_latency::cpu.inst     64612000                       # number of ReadReq MSHR miss cycles
system.cpu.icache.ReadReq_mshr_miss_latency::total     64612000                       # number of ReadReq MSHR miss cycles
system.cpu.icache.demand_mshr_miss_latency::cpu.inst     64612000                       # number of demand (read+write) MSHR miss cycles
system.cpu.icache.demand_mshr_miss_latency::total     64612000                       # number of demand (read+write) MSHR miss cycles
system.cpu.icache.overall_mshr_miss_latency::cpu.inst     64612000                       # number of overall MSHR miss cycles
system.cpu.icache.overall_mshr_miss_latency::total     64612000                       # number of overall MSHR miss cycles
system.cpu.icache.ReadReq_mshr_miss_rate::cpu.inst     0.000001                       # mshr miss rate for ReadReq accesses
system.cpu.icache.ReadReq_mshr_miss_rate::total     0.000001                       # mshr miss rate for ReadReq accesses
system.cpu.icache.demand_mshr_miss_rate::cpu.inst     0.000001                       # mshr miss rate for demand accesses
system.cpu.icache.demand_mshr_miss_rate::total     0.000001                       # mshr miss rate for demand accesses
system.cpu.icache.overall_mshr_miss_rate::cpu.inst     0.000001                       # mshr miss rate for overall accesses
system.cpu.icache.overall_mshr_miss_rate::total     0.000001                       # mshr miss rate for overall accesses
system.cpu.icache.ReadReq_avg_mshr_miss_latency::cpu.inst 182519.774011                       # average ReadReq mshr miss latency
system.cpu.icache.ReadReq_avg_mshr_miss_latency::total 182519.774011                       # average ReadReq mshr miss latency
system.cpu.icache.demand_avg_mshr_miss_latency::cpu.inst 182519.774011                       # average overall mshr miss latency
system.cpu.icache.demand_avg_mshr_miss_latency::total 182519.774011                       # average overall mshr miss latency
system.cpu.icache.overall_avg_mshr_miss_latency::cpu.inst 182519.774011                       # average overall mshr miss latency
system.cpu.icache.overall_avg_mshr_miss_latency::total 182519.774011                       # average overall mshr miss latency
system.cpu.icache.replacements                     48                       # number of replacements
system.cpu.itb_walker_cache.tags.pwrStateResidencyTicks::UNDEFINED 1112017411000                       # Cumulative time (in ticks) in various power states
system.cpu.itb_walker_cache.tags.tagsinuse            0                       # Cycle average of tags in use
system.cpu.itb_walker_cache.tags.total_refs            0                       # Total number of references to valid blocks.
system.cpu.itb_walker_cache.tags.sampled_refs            0                       # Sample count of references to valid blocks.
system.cpu.itb_walker_cache.tags.avg_refs          nan                       # Average number of references to valid blocks.
system.cpu.itb_walker_cache.tags.warmup_cycle            0                       # Cycle when the warmup percentage was hit.
system.cpu.itb_walker_cache.tags.tag_accesses            0                       # Number of tag accesses
system.cpu.itb_walker_cache.tags.data_accesses            0                       # Number of data accesses
system.cpu.itb_walker_cache.pwrStateResidencyTicks::UNDEFINED 1112017411000                       # Cumulative time (in ticks) in various power states
system.cpu.itb_walker_cache.blocked_cycles::no_mshrs            0                       # number of cycles access was blocked
system.cpu.itb_walker_cache.blocked_cycles::no_targets            0                       # number of cycles access was blocked
system.cpu.itb_walker_cache.blocked::no_mshrs            0                       # number of cycles access was blocked
system.cpu.itb_walker_cache.blocked::no_targets            0                       # number of cycles access was blocked
system.cpu.itb_walker_cache.avg_blocked_cycles::no_mshrs          nan                       # average number of cycles each access was blocked
system.cpu.itb_walker_cache.avg_blocked_cycles::no_targets          nan                       # average number of cycles each access was blocked
system.cpu.itb_walker_cache.replacements            0                       # number of replacements
system.l2.tags.pwrStateResidencyTicks::UNDEFINED 1112017411000                       # Cumulative time (in ticks) in various power states
system.l2.tags.tagsinuse                  2045.603109                       # Cycle average of tags in use
system.l2.tags.total_refs                     1585157                       # Total number of references to valid blocks.
system.l2.tags.sampled_refs                    518826                       # Sample count of references to valid blocks.
system.l2.tags.avg_refs                      3.055277                       # Average number of references to valid blocks.
system.l2.tags.warmup_cycle                    434500                       # Cycle when the warmup percentage was hit.
system.l2.tags.occ_blocks::writebacks        1.013161                       # Average occupied blocks per requestor
system.l2.tags.occ_blocks::cpu.inst          0.922966                       # Average occupied blocks per requestor
system.l2.tags.occ_blocks::cpu.data       2043.666982                       # Average occupied blocks per requestor
system.l2.tags.occ_percent::writebacks       0.000495                       # Average percentage of cache occupancy
system.l2.tags.occ_percent::cpu.inst         0.000451                       # Average percentage of cache occupancy
system.l2.tags.occ_percent::cpu.data         0.997884                       # Average percentage of cache occupancy
system.l2.tags.occ_percent::total            0.998830                       # Average percentage of cache occupancy
system.l2.tags.occ_task_id_blocks::1024          2048                       # Occupied blocks per task id
system.l2.tags.age_task_id_blocks_1024::0           31                       # Occupied blocks per task id
system.l2.tags.age_task_id_blocks_1024::1           36                       # Occupied blocks per task id
system.l2.tags.age_task_id_blocks_1024::3          450                       # Occupied blocks per task id
system.l2.tags.age_task_id_blocks_1024::4         1531                       # Occupied blocks per task id
system.l2.tags.occ_task_id_percent::1024            1                       # Percentage of cache occupancy per task id
system.l2.tags.tag_accesses                  13200186                       # Number of tag accesses
system.l2.tags.data_accesses                 13200186                       # Number of data accesses
system.l2.pwrStateResidencyTicks::UNDEFINED 1112017411000                       # Cumulative time (in ticks) in various power states
system.l2.WritebackDirty_hits::writebacks       657658                       # number of WritebackDirty hits
system.l2.WritebackDirty_hits::total           657658                       # number of WritebackDirty hits
system.l2.UpgradeReq_hits::cpu.data            220066                       # number of UpgradeReq hits
system.l2.UpgradeReq_hits::total               220066                       # number of UpgradeReq hits
system.l2.ReadExReq_hits::cpu.data               3076                       # number of ReadExReq hits
system.l2.ReadExReq_hits::total                  3076                       # number of ReadExReq hits
system.l2.ReadSharedReq_hits::cpu.data         161153                       # number of ReadSharedReq hits
system.l2.ReadSharedReq_hits::total            161153                       # number of ReadSharedReq hits
system.l2.demand_hits::cpu.data                164229                       # number of demand (read+write) hits
system.l2.demand_hits::total                   164229                       # number of demand (read+write) hits
system.l2.overall_hits::cpu.data               164229                       # number of overall hits
system.l2.overall_hits::total                  164229                       # number of overall hits
system.l2.ReadExReq_misses::cpu.data            63435                       # number of ReadExReq misses
system.l2.ReadExReq_misses::total               63435                       # number of ReadExReq misses
system.l2.ReadSharedReq_misses::cpu.inst          354                       # number of ReadSharedReq misses
system.l2.ReadSharedReq_misses::cpu.data       454943                       # number of ReadSharedReq misses
system.l2.ReadSharedReq_misses::total          455297                       # number of ReadSharedReq misses
system.l2.demand_misses::cpu.inst                 354                       # number of demand (read+write) misses
system.l2.demand_misses::cpu.data              518378                       # number of demand (read+write) misses
system.l2.demand_misses::total                 518732                       # number of demand (read+write) misses
system.l2.overall_misses::cpu.inst                354                       # number of overall misses
system.l2.overall_misses::cpu.data             518378                       # number of overall misses
system.l2.overall_misses::total                518732                       # number of overall misses
system.l2.ReadExReq_miss_latency::cpu.data  20122228500                       # number of ReadExReq miss cycles
system.l2.ReadExReq_miss_latency::total   20122228500                       # number of ReadExReq miss cycles
system.l2.ReadSharedReq_miss_latency::cpu.inst     64081000                       # number of ReadSharedReq miss cycles
system.l2.ReadSharedReq_miss_latency::cpu.data 106485663500                       # number of ReadSharedReq miss cycles
system.l2.ReadSharedReq_miss_latency::total 106549744500                       # number of ReadSharedReq miss cycles
system.l2.demand_miss_latency::cpu.inst      64081000                       # number of demand (read+write) miss cycles
system.l2.demand_miss_latency::cpu.data  126607892000                       # number of demand (read+write) miss cycles
system.l2.demand_miss_latency::total     126671973000                       # number of demand (read+write) miss cycles
system.l2.overall_miss_latency::cpu.inst     64081000                       # number of overall miss cycles
system.l2.overall_miss_latency::cpu.data 126607892000                       # number of overall miss cycles
system.l2.overall_miss_latency::total    126671973000                       # number of overall miss cycles
system.l2.WritebackDirty_accesses::writebacks       657658                       # number of WritebackDirty accesses(hits+misses)
system.l2.WritebackDirty_accesses::total       657658                       # number of WritebackDirty accesses(hits+misses)
system.l2.UpgradeReq_accesses::cpu.data        220066                       # number of UpgradeReq accesses(hits+misses)
system.l2.UpgradeReq_accesses::total           220066                       # number of UpgradeReq accesses(hits+misses)
system.l2.ReadExReq_accesses::cpu.data          66511                       # number of ReadExReq accesses(hits+misses)
system.l2.ReadExReq_accesses::total             66511                       # number of ReadExReq accesses(hits+misses)
system.l2.ReadSharedReq_accesses::cpu.inst          354                       # number of ReadSharedReq accesses(hits+misses)
system.l2.ReadSharedReq_accesses::cpu.data       616096                       # number of ReadSharedReq accesses(hits+misses)
system.l2.ReadSharedReq_accesses::total        616450                       # number of ReadSharedReq accesses(hits+misses)
system.l2.demand_accesses::cpu.inst               354                       # number of demand (read+write) accesses
system.l2.demand_accesses::cpu.data            682607                       # number of demand (read+write) accesses
system.l2.demand_accesses::total               682961                       # number of demand (read+write) accesses
system.l2.overall_accesses::cpu.inst              354                       # number of overall (read+write) accesses
system.l2.overall_accesses::cpu.data           682607                       # number of overall (read+write) accesses
system.l2.overall_accesses::total              682961                       # number of overall (read+write) accesses
system.l2.ReadExReq_miss_rate::cpu.data      0.953752                       # miss rate for ReadExReq accesses
system.l2.ReadExReq_miss_rate::total         0.953752                       # miss rate for ReadExReq accesses
system.l2.ReadSharedReq_miss_rate::cpu.inst            1                       # miss rate for ReadSharedReq accesses
system.l2.ReadSharedReq_miss_rate::cpu.data     0.738429                       # miss rate for ReadSharedReq accesses
system.l2.ReadSharedReq_miss_rate::total     0.738579                       # miss rate for ReadSharedReq accesses
system.l2.demand_miss_rate::cpu.inst                1                       # miss rate for demand accesses
system.l2.demand_miss_rate::cpu.data         0.759409                       # miss rate for demand accesses
system.l2.demand_miss_rate::total            0.759534                       # miss rate for demand accesses
system.l2.overall_miss_rate::cpu.inst               1                       # miss rate for overall accesses
system.l2.overall_miss_rate::cpu.data        0.759409                       # miss rate for overall accesses
system.l2.overall_miss_rate::total           0.759534                       # miss rate for overall accesses
system.l2.ReadExReq_avg_miss_latency::cpu.data 317210.191535                       # average ReadExReq miss latency
system.l2.ReadExReq_avg_miss_latency::total 317210.191535                       # average ReadExReq miss latency
system.l2.ReadSharedReq_avg_miss_latency::cpu.inst 181019.774011                       # average ReadSharedReq miss latency
system.l2.ReadSharedReq_avg_miss_latency::cpu.data 234063.747546                       # average ReadSharedReq miss latency
system.l2.ReadSharedReq_avg_miss_latency::total 234022.505090                       # average ReadSharedReq miss latency
system.l2.demand_avg_miss_latency::cpu.inst 181019.774011                       # average overall miss latency
system.l2.demand_avg_miss_latency::cpu.data 244238.551790                       # average overall miss latency
system.l2.demand_avg_miss_latency::total 244195.409190                       # average overall miss latency
system.l2.overall_avg_miss_latency::cpu.inst 181019.774011                       # average overall miss latency
system.l2.overall_avg_miss_latency::cpu.data 244238.551790                       # average overall miss latency
system.l2.overall_avg_miss_latency::total 244195.409190                       # average overall miss latency
system.l2.blocked_cycles::no_mshrs                  0                       # number of cycles access was blocked
system.l2.blocked_cycles::no_targets                0                       # number of cycles access was blocked
system.l2.blocked::no_mshrs                         0                       # number of cycles access was blocked
system.l2.blocked::no_targets                       0                       # number of cycles access was blocked
system.l2.avg_blocked_cycles::no_mshrs            nan                       # average number of cycles each access was blocked
system.l2.avg_blocked_cycles::no_targets          nan                       # average number of cycles each access was blocked
system.l2.writebacks::writebacks               508355                       # number of writebacks
system.l2.writebacks::total                    508355                       # number of writebacks
system.l2.CleanEvict_mshr_misses::writebacks           13                       # number of CleanEvict MSHR misses
system.l2.CleanEvict_mshr_misses::total            13                       # number of CleanEvict MSHR misses
system.l2.ReadExReq_mshr_misses::cpu.data        63435                       # number of ReadExReq MSHR misses
system.l2.ReadExReq_mshr_misses::total          63435                       # number of ReadExReq MSHR misses
system.l2.ReadSharedReq_mshr_misses::cpu.inst          354                       # number of ReadSharedReq MSHR misses
system.l2.ReadSharedReq_mshr_misses::cpu.data       454943                       # number of ReadSharedReq MSHR misses
system.l2.ReadSharedReq_mshr_misses::total       455297                       # number of ReadSharedReq MSHR misses
system.l2.demand_mshr_misses::cpu.inst            354                       # number of demand (read+write) MSHR misses
system.l2.demand_mshr_misses::cpu.data         518378                       # number of demand (read+write) MSHR misses
system.l2.demand_mshr_misses::total            518732                       # number of demand (read+write) MSHR misses
system.l2.overall_mshr_misses::cpu.inst           354                       # number of overall MSHR misses
system.l2.overall_mshr_misses::cpu.data        518378                       # number of overall MSHR misses
system.l2.overall_mshr_misses::total           518732                       # number of overall MSHR misses
system.l2.ReadExReq_mshr_miss_latency::cpu.data  19487878500                       # number of ReadExReq MSHR miss cycles
system.l2.ReadExReq_mshr_miss_latency::total  19487878500                       # number of ReadExReq MSHR miss cycles
system.l2.ReadSharedReq_mshr_miss_latency::cpu.inst     60541000                       # number of ReadSharedReq MSHR miss cycles
system.l2.ReadSharedReq_mshr_miss_latency::cpu.data 101936233500                       # number of ReadSharedReq MSHR miss cycles
system.l2.ReadSharedReq_mshr_miss_latency::total 101996774500                       # number of ReadSharedReq MSHR miss cycles
system.l2.demand_mshr_miss_latency::cpu.inst     60541000                       # number of demand (read+write) MSHR miss cycles
system.l2.demand_mshr_miss_latency::cpu.data 121424112000                       # number of demand (read+write) MSHR miss cycles
system.l2.demand_mshr_miss_latency::total 121484653000                       # number of demand (read+write) MSHR miss cycles
system.l2.overall_mshr_miss_latency::cpu.inst     60541000                       # number of overall MSHR miss cycles
system.l2.overall_mshr_miss_latency::cpu.data 121424112000                       # number of overall MSHR miss cycles
system.l2.overall_mshr_miss_latency::total 121484653000                       # number of overall MSHR miss cycles
system.l2.CleanEvict_mshr_miss_rate::writebacks          inf                       # mshr miss rate for CleanEvict accesses
system.l2.CleanEvict_mshr_miss_rate::total          inf                       # mshr miss rate for CleanEvict accesses
system.l2.ReadExReq_mshr_miss_rate::cpu.data     0.953752                       # mshr miss rate for ReadExReq accesses
system.l2.ReadExReq_mshr_miss_rate::total     0.953752                       # mshr miss rate for ReadExReq accesses
system.l2.ReadSharedReq_mshr_miss_rate::cpu.inst            1                       # mshr miss rate for ReadSharedReq accesses
system.l2.ReadSharedReq_mshr_miss_rate::cpu.data     0.738429                       # mshr miss rate for ReadSharedReq accesses
system.l2.ReadSharedReq_mshr_miss_rate::total     0.738579                       # mshr miss rate for ReadSharedReq accesses
system.l2.demand_mshr_miss_rate::cpu.inst            1                       # mshr miss rate for demand accesses
system.l2.demand_mshr_miss_rate::cpu.data     0.759409                       # mshr miss rate for demand accesses
system.l2.demand_mshr_miss_rate::total       0.759534                       # mshr miss rate for demand accesses
system.l2.overall_mshr_miss_rate::cpu.inst            1                       # mshr miss rate for overall accesses
system.l2.overall_mshr_miss_rate::cpu.data     0.759409                       # mshr miss rate for overall accesses
system.l2.overall_mshr_miss_rate::total      0.759534                       # mshr miss rate for overall accesses
system.l2.ReadExReq_avg_mshr_miss_latency::cpu.data 307210.191535                       # average ReadExReq mshr miss latency
system.l2.ReadExReq_avg_mshr_miss_latency::total 307210.191535                       # average ReadExReq mshr miss latency
system.l2.ReadSharedReq_avg_mshr_miss_latency::cpu.inst 171019.774011                       # average ReadSharedReq mshr miss latency
system.l2.ReadSharedReq_avg_mshr_miss_latency::cpu.data 224063.747546                       # average ReadSharedReq mshr miss latency
system.l2.ReadSharedReq_avg_mshr_miss_latency::total 224022.505090                       # average ReadSharedReq mshr miss latency
system.l2.demand_avg_mshr_miss_latency::cpu.inst 171019.774011                       # average overall mshr miss latency
system.l2.demand_avg_mshr_miss_latency::cpu.data 234238.551790                       # average overall mshr miss latency
system.l2.demand_avg_mshr_miss_latency::total 234195.409190                       # average overall mshr miss latency
system.l2.overall_avg_mshr_miss_latency::cpu.inst 171019.774011                       # average overall mshr miss latency
system.l2.overall_avg_mshr_miss_latency::cpu.data 234238.551790                       # average overall mshr miss latency
system.l2.overall_avg_mshr_miss_latency::total 234195.409190                       # average overall mshr miss latency
system.l2.replacements                         516778                       # number of replacements
system.l3.tags.pwrStateResidencyTicks::UNDEFINED 1112017411000                       # Cumulative time (in ticks) in various power states
system.l3.tags.tagsinuse                 16152.010075                       # Cycle average of tags in use
system.l3.tags.total_refs                     1035136                       # Total number of references to valid blocks.
system.l3.tags.sampled_refs                    280119                       # Sample count of references to valid blocks.
system.l3.tags.avg_refs                      3.695344                       # Average number of references to valid blocks.
system.l3.tags.warmup_cycle                    418000                       # Cycle when the warmup percentage was hit.
system.l3.tags.occ_blocks::writebacks        1.005504                       # Average occupied blocks per requestor
system.l3.tags.occ_blocks::cpu.inst          6.609328                       # Average occupied blocks per requestor
system.l3.tags.occ_blocks::cpu.data      16144.395243                       # Average occupied blocks per requestor
system.l3.tags.occ_percent::writebacks       0.000061                       # Average percentage of cache occupancy
system.l3.tags.occ_percent::cpu.inst         0.000403                       # Average percentage of cache occupancy
system.l3.tags.occ_percent::cpu.data         0.985376                       # Average percentage of cache occupancy
system.l3.tags.occ_percent::total            0.985840                       # Average percentage of cache occupancy
system.l3.tags.occ_task_id_blocks::1024         16384                       # Occupied blocks per task id
system.l3.tags.age_task_id_blocks_1024::0           31                       # Occupied blocks per task id
system.l3.tags.age_task_id_blocks_1024::1           34                       # Occupied blocks per task id
system.l3.tags.age_task_id_blocks_1024::4        16319                       # Occupied blocks per task id
system.l3.tags.occ_task_id_percent::1024            1                       # Percentage of cache occupancy per task id
system.l3.tags.tag_accesses                   2350415                       # Number of tag accesses
system.l3.tags.data_accesses                  2350415                       # Number of data accesses
system.l3.pwrStateResidencyTicks::UNDEFINED 1112017411000                       # Cumulative time (in ticks) in various power states
system.l3.WritebackDirty_hits::writebacks       508355                       # number of WritebackDirty hits
system.l3.WritebackDirty_hits::total           508355                       # number of WritebackDirty hits
system.l3.ReadExReq_hits::cpu.data                665                       # number of ReadExReq hits
system.l3.ReadExReq_hits::total                   665                       # number of ReadExReq hits
system.l3.ReadSharedReq_hits::cpu.data         237965                       # number of ReadSharedReq hits
system.l3.ReadSharedReq_hits::total            237965                       # number of ReadSharedReq hits
system.l3.demand_hits::cpu.data                238630                       # number of demand (read+write) hits
system.l3.demand_hits::total                   238630                       # number of demand (read+write) hits
system.l3.overall_hits::cpu.data               238630                       # number of overall hits
system.l3.overall_hits::total                  238630                       # number of overall hits
system.l3.ReadExReq_misses::cpu.data            62770                       # number of ReadExReq misses
system.l3.ReadExReq_misses::total               62770                       # number of ReadExReq misses
system.l3.ReadSharedReq_misses::cpu.inst          354                       # number of ReadSharedReq misses
system.l3.ReadSharedReq_misses::cpu.data       216978                       # number of ReadSharedReq misses
system.l3.ReadSharedReq_misses::total          217332                       # number of ReadSharedReq misses
system.l3.demand_misses::cpu.inst                 354                       # number of demand (read+write) misses
system.l3.demand_misses::cpu.data              279748                       # number of demand (read+write) misses
system.l3.demand_misses::total                 280102                       # number of demand (read+write) misses
system.l3.overall_misses::cpu.inst                354                       # number of overall misses
system.l3.overall_misses::cpu.data             279748                       # number of overall misses
system.l3.overall_misses::total                280102                       # number of overall misses
system.l3.ReadExReq_miss_latency::cpu.data  18779121000                       # number of ReadExReq miss cycles
system.l3.ReadExReq_miss_latency::total   18779121000                       # number of ReadExReq miss cycles
system.l3.ReadSharedReq_miss_latency::cpu.inst     56647000                       # number of ReadSharedReq miss cycles
system.l3.ReadSharedReq_miss_latency::cpu.data  93005438000                       # number of ReadSharedReq miss cycles
system.l3.ReadSharedReq_miss_latency::total  93062085000                       # number of ReadSharedReq miss cycles
system.l3.demand_miss_latency::cpu.inst      56647000                       # number of demand (read+write) miss cycles
system.l3.demand_miss_latency::cpu.data  111784559000                       # number of demand (read+write) miss cycles
system.l3.demand_miss_latency::total     111841206000                       # number of demand (read+write) miss cycles
system.l3.overall_miss_latency::cpu.inst     56647000                       # number of overall miss cycles
system.l3.overall_miss_latency::cpu.data 111784559000                       # number of overall miss cycles
system.l3.overall_miss_latency::total    111841206000                       # number of overall miss cycles
system.l3.WritebackDirty_accesses::writebacks       508355                       # number of WritebackDirty accesses(hits+misses)
system.l3.WritebackDirty_accesses::total       508355                       # number of WritebackDirty accesses(hits+misses)
system.l3.ReadExReq_accesses::cpu.data          63435                       # number of ReadExReq accesses(hits+misses)
system.l3.ReadExReq_accesses::total             63435                       # number of ReadExReq accesses(hits+misses)
system.l3.ReadSharedReq_accesses::cpu.inst          354                       # number of ReadSharedReq accesses(hits+misses)
system.l3.ReadSharedReq_accesses::cpu.data       454943                       # number of ReadSharedReq accesses(hits+misses)
system.l3.ReadSharedReq_accesses::total        455297                       # number of ReadSharedReq accesses(hits+misses)
system.l3.demand_accesses::cpu.inst               354                       # number of demand (read+write) accesses
system.l3.demand_accesses::cpu.data            518378                       # number of demand (read+write) accesses
system.l3.demand_accesses::total               518732                       # number of demand (read+write) accesses
system.l3.overall_accesses::cpu.inst              354                       # number of overall (read+write) accesses
system.l3.overall_accesses::cpu.data           518378                       # number of overall (read+write) accesses
system.l3.overall_accesses::total              518732                       # number of overall (read+write) accesses
system.l3.ReadExReq_miss_rate::cpu.data      0.989517                       # miss rate for ReadExReq accesses
system.l3.ReadExReq_miss_rate::total         0.989517                       # miss rate for ReadExReq accesses
system.l3.ReadSharedReq_miss_rate::cpu.inst            1                       # miss rate for ReadSharedReq accesses
system.l3.ReadSharedReq_miss_rate::cpu.data     0.476934                       # miss rate for ReadSharedReq accesses
system.l3.ReadSharedReq_miss_rate::total     0.477341                       # miss rate for ReadSharedReq accesses
system.l3.demand_miss_rate::cpu.inst                1                       # miss rate for demand accesses
system.l3.demand_miss_rate::cpu.data         0.539660                       # miss rate for demand accesses
system.l3.demand_miss_rate::total            0.539974                       # miss rate for demand accesses
system.l3.overall_miss_rate::cpu.inst               1                       # miss rate for overall accesses
system.l3.overall_miss_rate::cpu.data        0.539660                       # miss rate for overall accesses
system.l3.overall_miss_rate::total           0.539974                       # miss rate for overall accesses
system.l3.ReadExReq_avg_miss_latency::cpu.data 299173.506452                       # average ReadExReq miss latency
system.l3.ReadExReq_avg_miss_latency::total 299173.506452                       # average ReadExReq miss latency
system.l3.ReadSharedReq_avg_miss_latency::cpu.inst 160019.774011                       # average ReadSharedReq miss latency
system.l3.ReadSharedReq_avg_miss_latency::cpu.data 428639.945064                       # average ReadSharedReq miss latency
system.l3.ReadSharedReq_avg_miss_latency::total 428202.404616                       # average ReadSharedReq miss latency
system.l3.demand_avg_miss_latency::cpu.inst 160019.774011                       # average overall miss latency
system.l3.demand_avg_miss_latency::cpu.data 399590.199036                       # average overall miss latency
system.l3.demand_avg_miss_latency::total 399287.423867                       # average overall miss latency
system.l3.overall_avg_miss_latency::cpu.inst 160019.774011                       # average overall miss latency
system.l3.overall_avg_miss_latency::cpu.data 399590.199036                       # average overall miss latency
system.l3.overall_avg_miss_latency::total 399287.423867                       # average overall miss latency
system.l3.blocked_cycles::no_mshrs                  0                       # number of cycles access was blocked
system.l3.blocked_cycles::no_targets                0                       # number of cycles access was blocked
system.l3.blocked::no_mshrs                         0                       # number of cycles access was blocked
system.l3.blocked::no_targets                       0                       # number of cycles access was blocked
system.l3.avg_blocked_cycles::no_mshrs            nan                       # average number of cycles each access was blocked
system.l3.avg_blocked_cycles::no_targets          nan                       # average number of cycles each access was blocked
system.l3.writebacks::writebacks               256975                       # number of writebacks
system.l3.writebacks::total                    256975                       # number of writebacks
system.l3.CleanEvict_mshr_misses::writebacks           12                       # number of CleanEvict MSHR misses
system.l3.CleanEvict_mshr_misses::total            12                       # number of CleanEvict MSHR misses
system.l3.ReadExReq_mshr_misses::cpu.data        62770                       # number of ReadExReq MSHR misses
system.l3.ReadExReq_mshr_misses::total          62770                       # number of ReadExReq MSHR misses
system.l3.ReadSharedReq_mshr_misses::cpu.inst          354                       # number of ReadSharedReq MSHR misses
system.l3.ReadSharedReq_mshr_misses::cpu.data       216978                       # number of ReadSharedReq MSHR misses
system.l3.ReadSharedReq_mshr_misses::total       217332                       # number of ReadSharedReq MSHR misses
system.l3.demand_mshr_misses::cpu.inst            354                       # number of demand (read+write) MSHR misses
system.l3.demand_mshr_misses::cpu.data         279748                       # number of demand (read+write) MSHR misses
system.l3.demand_mshr_misses::total            280102                       # number of demand (read+write) MSHR misses
system.l3.overall_mshr_misses::cpu.inst           354                       # number of overall MSHR misses
system.l3.overall_mshr_misses::cpu.data        279748                       # number of overall MSHR misses
system.l3.overall_mshr_misses::total           280102                       # number of overall MSHR misses
system.l3.ReadExReq_mshr_miss_latency::cpu.data  17774801000                       # number of ReadExReq MSHR miss cycles
system.l3.ReadExReq_mshr_miss_latency::total  17774801000                       # number of ReadExReq MSHR miss cycles
system.l3.ReadSharedReq_mshr_miss_latency::cpu.inst     50983000                       # number of ReadSharedReq MSHR miss cycles
system.l3.ReadSharedReq_mshr_miss_latency::cpu.data  89533790000                       # number of ReadSharedReq MSHR miss cycles
system.l3.ReadSharedReq_mshr_miss_latency::total  89584773000                       # number of ReadSharedReq MSHR miss cycles
system.l3.demand_mshr_miss_latency::cpu.inst     50983000                       # number of demand (read+write) MSHR miss cycles
system.l3.demand_mshr_miss_latency::cpu.data 107308591000                       # number of demand (read+write) MSHR miss cycles
system.l3.demand_mshr_miss_latency::total 107359574000                       # number of demand (read+write) MSHR miss cycles
system.l3.overall_mshr_miss_latency::cpu.inst     50983000                       # number of overall MSHR miss cycles
system.l3.overall_mshr_miss_latency::cpu.data 107308591000                       # number of overall MSHR miss cycles
system.l3.overall_mshr_miss_latency::total 107359574000                       # number of overall MSHR miss cycles
system.l3.CleanEvict_mshr_miss_rate::writebacks          inf                       # mshr miss rate for CleanEvict accesses
system.l3.CleanEvict_mshr_miss_rate::total          inf                       # mshr miss rate for CleanEvict accesses
system.l3.ReadExReq_mshr_miss_rate::cpu.data     0.989517                       # mshr miss rate for ReadExReq accesses
system.l3.ReadExReq_mshr_miss_rate::total     0.989517                       # mshr miss rate for ReadExReq accesses
system.l3.ReadSharedReq_mshr_miss_rate::cpu.inst            1                       # mshr miss rate for ReadSharedReq accesses
system.l3.ReadSharedReq_mshr_miss_rate::cpu.data     0.476934                       # mshr miss rate for ReadSharedReq accesses
system.l3.ReadSharedReq_mshr_miss_rate::total     0.477341                       # mshr miss rate for ReadSharedReq accesses
system.l3.demand_mshr_miss_rate::cpu.inst            1                       # mshr miss rate for demand accesses
system.l3.demand_mshr_miss_rate::cpu.data     0.539660                       # mshr miss rate for demand accesses
system.l3.demand_mshr_miss_rate::total       0.539974                       # mshr miss rate for demand accesses
system.l3.overall_mshr_miss_rate::cpu.inst            1                       # mshr miss rate for overall accesses
system.l3.overall_mshr_miss_rate::cpu.data     0.539660                       # mshr miss rate for overall accesses
system.l3.overall_mshr_miss_rate::total      0.539974                       # mshr miss rate for overall accesses
system.l3.ReadExReq_avg_mshr_miss_latency::cpu.data 283173.506452                       # average ReadExReq mshr miss latency
system.l3.ReadExReq_avg_mshr_miss_latency::total 283173.506452                       # average ReadExReq mshr miss latency
system.l3.ReadSharedReq_avg_mshr_miss_latency::cpu.inst 144019.774011                       # average ReadSharedReq mshr miss latency
system.l3.ReadSharedReq_avg_mshr_miss_latency::cpu.data 412639.945064                       # average ReadSharedReq mshr miss latency
system.l3.ReadSharedReq_avg_mshr_miss_latency::total 412202.404616                       # average ReadSharedReq mshr miss latency
system.l3.demand_avg_mshr_miss_latency::cpu.inst 144019.774011                       # average overall mshr miss latency
system.l3.demand_avg_mshr_miss_latency::cpu.data 383590.199036                       # average overall mshr miss latency
system.l3.demand_avg_mshr_miss_latency::total 383287.423867                       # average overall mshr miss latency
system.l3.overall_avg_mshr_miss_latency::cpu.inst 144019.774011                       # average overall mshr miss latency
system.l3.overall_avg_mshr_miss_latency::cpu.data 383590.199036                       # average overall mshr miss latency
system.l3.overall_avg_mshr_miss_latency::total 383287.423867                       # average overall mshr miss latency
system.l3.replacements                         263735                       # number of replacements
system.membus.snoop_filter.tot_requests        543552                       # Total number of requests made to the snoop filter.
system.membus.snoop_filter.hit_single_requests       263450                       # Number of requests hitting in the snoop filter with a single holder of the requested data.
system.membus.snoop_filter.hit_multi_requests            0                       # Number of requests hitting in the snoop filter with multiple (>1) holders of the requested data.
system.membus.snoop_filter.tot_snoops               0                       # Total number of snoops made to the snoop filter.
system.membus.snoop_filter.hit_single_snoops            0                       # Number of snoops hitting in the snoop filter with a single holder of the requested data.
system.membus.snoop_filter.hit_multi_snoops            0                       # Number of snoops hitting in the snoop filter with multiple (>1) holders of the requested data.
system.membus.pwrStateResidencyTicks::UNDEFINED 1112017411000                       # Cumulative time (in ticks) in various power states
system.membus.trans_dist::ReadResp             217332                       # Transaction distribution
system.membus.trans_dist::WritebackDirty       256975                       # Transaction distribution
system.membus.trans_dist::CleanEvict             6475                       # Transaction distribution
system.membus.trans_dist::ReadExReq             62770                       # Transaction distribution
system.membus.trans_dist::ReadExResp            62770                       # Transaction distribution
system.membus.trans_dist::ReadSharedReq        217332                       # Transaction distribution
system.membus.pkt_count_system.l3.mem_side::system.mem_ctrls.port       823654                       # Packet count per connected master and slave (bytes)
system.membus.pkt_count_system.l3.mem_side::total       823654                       # Packet count per connected master and slave (bytes)
system.membus.pkt_count::total                 823654                       # Packet count per connected master and slave (bytes)
system.membus.pkt_size_system.l3.mem_side::system.mem_ctrls.port     34372928                       # Cumulative packet size per connected master and slave (bytes)
system.membus.pkt_size_system.l3.mem_side::total     34372928                       # Cumulative packet size per connected master and slave (bytes)
system.membus.pkt_size::total                34372928                       # Cumulative packet size per connected master and slave (bytes)
system.membus.snoops                                0                       # Total snoops (count)
system.membus.snoopTraffic                          0                       # Total snoop traffic (bytes)
system.membus.snoop_fanout::samples            280102                       # Request fanout histogram
system.membus.snoop_fanout::mean                    0                       # Request fanout histogram
system.membus.snoop_fanout::stdev                   0                       # Request fanout histogram
system.membus.snoop_fanout::underflows              0      0.00%      0.00% # Request fanout histogram
system.membus.snoop_fanout::0                  280102    100.00%    100.00% # Request fanout histogram
system.membus.snoop_fanout::1                       0      0.00%    100.00% # Request fanout histogram
system.membus.snoop_fanout::overflows               0      0.00%    100.00% # Request fanout histogram
system.membus.snoop_fanout::min_value               0                       # Request fanout histogram
system.membus.snoop_fanout::max_value               0                       # Request fanout histogram
system.membus.snoop_fanout::total              280102                       # Request fanout histogram
system.membus.reqLayer2.occupancy          1571452000                       # Layer occupancy (ticks)
system.membus.reqLayer2.utilization               0.1                       # Layer utilization (%)
system.membus.respLayer1.occupancy         1400510000                       # Layer occupancy (ticks)
system.membus.respLayer1.utilization              0.1                       # Layer utilization (%)
system.tol2bus.snoop_filter.tot_requests      1585170                       # Total number of requests made to the snoop filter.
system.tol2bus.snoop_filter.hit_single_requests       902209                       # Number of requests hitting in the snoop filter with a single holder of the requested data.
system.tol2bus.snoop_filter.hit_multi_requests            0                       # Number of requests hitting in the snoop filter with multiple (>1) holders of the requested data.
system.tol2bus.snoop_filter.tot_snoops            671                       # Total number of snoops made to the snoop filter.
system.tol2bus.snoop_filter.hit_single_snoops          671                       # Number of snoops hitting in the snoop filter with a single holder of the requested data.
system.tol2bus.snoop_filter.hit_multi_snoops            0                       # Number of snoops hitting in the snoop filter with multiple (>1) holders of the requested data.
system.tol2bus.pwrStateResidencyTicks::UNDEFINED 1112017411000                       # Cumulative time (in ticks) in various power states
system.tol2bus.trans_dist::ReadResp            616450                       # Transaction distribution
system.tol2bus.trans_dist::WritebackDirty      1166013                       # Transaction distribution
system.tol2bus.trans_dist::CleanEvict           33205                       # Transaction distribution
system.tol2bus.trans_dist::UpgradeReq          220066                       # Transaction distribution
system.tol2bus.trans_dist::UpgradeResp         220066                       # Transaction distribution
system.tol2bus.trans_dist::ReadExReq            66511                       # Transaction distribution
system.tol2bus.trans_dist::ReadExResp           66511                       # Transaction distribution
system.tol2bus.trans_dist::ReadSharedReq       616450                       # Transaction distribution
system.tol2bus.pkt_count_system.cpu.icache.mem_side::system.l2.cpu_side          756                       # Packet count per connected master and slave (bytes)
system.tol2bus.pkt_count_system.cpu.dcache.mem_side::system.l2.cpu_side      2487441                       # Packet count per connected master and slave (bytes)
system.tol2bus.pkt_count::total               2488197                       # Packet count per connected master and slave (bytes)
system.tol2bus.pkt_size_system.cpu.icache.mem_side::system.l2.cpu_side        22656                       # Cumulative packet size per connected master and slave (bytes)
system.tol2bus.pkt_size_system.cpu.dcache.mem_side::system.l2.cpu_side     85776960                       # Cumulative packet size per connected master and slave (bytes)
system.tol2bus.pkt_size::total               85799616                       # Cumulative packet size per connected master and slave (bytes)
system.tol2bus.snoops                          517075                       # Total snoops (count)
system.tol2bus.snoopTraffic                  32534720                       # Total snoop traffic (bytes)
system.tol2bus.snoop_fanout::samples          1420102                       # Request fanout histogram
system.tol2bus.snoop_fanout::mean            0.000473                       # Request fanout histogram
system.tol2bus.snoop_fanout::stdev           0.021732                       # Request fanout histogram
system.tol2bus.snoop_fanout::underflows             0      0.00%      0.00% # Request fanout histogram
system.tol2bus.snoop_fanout::0                1419431     99.95%     99.95% # Request fanout histogram
system.tol2bus.snoop_fanout::1                    671      0.05%    100.00% # Request fanout histogram
system.tol2bus.snoop_fanout::2                      0      0.00%    100.00% # Request fanout histogram
system.tol2bus.snoop_fanout::3                      0      0.00%    100.00% # Request fanout histogram
system.tol2bus.snoop_fanout::4                      0      0.00%    100.00% # Request fanout histogram
system.tol2bus.snoop_fanout::overflows              0      0.00%    100.00% # Request fanout histogram
system.tol2bus.snoop_fanout::min_value              0                       # Request fanout histogram
system.tol2bus.snoop_fanout::max_value              1                       # Request fanout histogram
system.tol2bus.snoop_fanout::total            1420102                       # Request fanout histogram
system.tol2bus.reqLayer0.occupancy         1450243000                       # Layer occupancy (ticks)
system.tol2bus.reqLayer0.utilization              0.1                       # Layer utilization (%)
system.tol2bus.respLayer0.occupancy            531000                       # Layer occupancy (ticks)
system.tol2bus.respLayer0.utilization             0.0                       # Layer utilization (%)
system.tol2bus.respLayer1.occupancy        1133943500                       # Layer occupancy (ticks)
system.tol2bus.respLayer1.utilization             0.1                       # Layer utilization (%)
system.tol3bus.snoop_filter.tot_requests      1035148                       # Total number of requests made to the snoop filter.
system.tol3bus.snoop_filter.hit_single_requests       516416                       # Number of requests hitting in the snoop filter with a single holder of the requested data.
system.tol3bus.snoop_filter.hit_multi_requests            0                       # Number of requests hitting in the snoop filter with multiple (>1) holders of the requested data.
system.tol3bus.snoop_filter.tot_snoops            297                       # Total number of snoops made to the snoop filter.
system.tol3bus.snoop_filter.hit_single_snoops          297                       # Number of snoops hitting in the snoop filter with a single holder of the requested data.
system.tol3bus.snoop_filter.hit_multi_snoops            0                       # Number of snoops hitting in the snoop filter with multiple (>1) holders of the requested data.
system.tol3bus.pwrStateResidencyTicks::UNDEFINED 1112017411000                       # Cumulative time (in ticks) in various power states
system.tol3bus.trans_dist::ReadResp            455297                       # Transaction distribution
system.tol3bus.trans_dist::WritebackDirty       765330                       # Transaction distribution
system.tol3bus.trans_dist::CleanEvict           14821                       # Transaction distribution
system.tol3bus.trans_dist::ReadExReq            63435                       # Transaction distribution
system.tol3bus.trans_dist::ReadExResp           63435                       # Transaction distribution
system.tol3bus.trans_dist::ReadSharedReq       455297                       # Transaction distribution
system.tol3bus.pkt_count_system.l2.mem_side::system.l3.cpu_side      1553880                       # Packet count per connected master and slave (bytes)
system.tol3bus.pkt_size_system.l2.mem_side::system.l3.cpu_side     65733568                       # Cumulative packet size per connected master and slave (bytes)
system.tol3bus.snoops                          263735                       # Total snoops (count)
system.tol3bus.snoopTraffic                  16446400                       # Total snoop traffic (bytes)
system.tol3bus.snoop_fanout::samples           782467                       # Request fanout histogram
system.tol3bus.snoop_fanout::mean            0.000380                       # Request fanout histogram
system.tol3bus.snoop_fanout::stdev           0.019479                       # Request fanout histogram
system.tol3bus.snoop_fanout::underflows             0      0.00%      0.00% # Request fanout histogram
system.tol3bus.snoop_fanout::0                 782170     99.96%     99.96% # Request fanout histogram
system.tol3bus.snoop_fanout::1                    297      0.04%    100.00% # Request fanout histogram
system.tol3bus.snoop_fanout::overflows              0      0.00%    100.00% # Request fanout histogram
system.tol3bus.snoop_fanout::min_value              0                       # Request fanout histogram
system.tol3bus.snoop_fanout::max_value              1                       # Request fanout histogram
system.tol3bus.snoop_fanout::total             782467                       # Request fanout histogram
system.tol3bus.reqLayer0.occupancy         1025929000                       # Layer occupancy (ticks)
system.tol3bus.reqLayer0.utilization              0.1                       # Layer utilization (%)
system.tol3bus.respLayer0.occupancy         778098000                       # Layer occupancy (ticks)
system.tol3bus.respLayer0.utilization             0.1                       # Layer utilization (%)

---------- End Simulation Statistics   ----------
