
---------- Begin Simulation Statistics ----------
sim_seconds                                  1.110346                       # Number of seconds simulated
sim_ticks                                1110345811000                       # Number of ticks simulated
final_tick                               1110345811000                       # Number of ticks from beginning of simulation (restored from checkpoints and never reset)
sim_freq                                 1000000000000                       # Frequency of simulated ticks
host_inst_rate                                 332256                       # Simulator instruction rate (inst/s)
host_op_rate                                   538797                       # Simulator op (including micro ops) rate (op/s)
host_tick_rate                              731853376                       # Simulator tick rate (ticks/s)
host_mem_usage                                 663660                       # Number of bytes of host memory used
host_seconds                                  1517.17                       # Real time elapsed on the host
sim_insts                                   504088751                       # Number of instructions simulated
sim_ops                                     817446081                       # Number of ops (including micro ops) simulated
system.voltage_domain.voltage                       1                       # Voltage in Volts
system.clk_domain.clock                          1000                       # Clock period in ticks
system.mem_ctrls.pwrStateResidencyTicks::UNDEFINED 1110345811000                       # Cumulative time (in ticks) in various power states
system.mem_ctrls.bytes_read::cpu.inst           22656                       # Number of bytes read from this memory
system.mem_ctrls.bytes_read::cpu.data        18399168                       # Number of bytes read from this memory
system.mem_ctrls.bytes_read::total           18421824                       # Number of bytes read from this memory
system.mem_ctrls.bytes_inst_read::cpu.inst        22656                       # Number of instructions bytes read from this memory
system.mem_ctrls.bytes_inst_read::total         22656                       # Number of instructions bytes read from this memory
system.mem_ctrls.bytes_written::writebacks     16946624                       # Number of bytes written to this memory
system.mem_ctrls.bytes_written::total        16946624                       # Number of bytes written to this memory
system.mem_ctrls.num_reads::cpu.inst              354                       # Number of read requests responded to by this memory
system.mem_ctrls.num_reads::cpu.data           287487                       # Number of read requests responded to by this memory
system.mem_ctrls.num_reads::total              287841                       # Number of read requests responded to by this memory
system.mem_ctrls.num_writes::writebacks        264791                       # Number of write requests responded to by this memory
system.mem_ctrls.num_writes::total             264791                       # Number of write requests responded to by this memory
system.mem_ctrls.bw_read::cpu.inst              20404                       # Total read bandwidth from this memory (bytes/s)
system.mem_ctrls.bw_read::cpu.data           16570665                       # Total read bandwidth from this memory (bytes/s)
system.mem_ctrls.bw_read::total              16591069                       # Total read bandwidth from this memory (bytes/s)
system.mem_ctrls.bw_inst_read::cpu.inst         20404                       # Instruction read bandwidth from this memory (bytes/s)
system.mem_ctrls.bw_inst_read::total            20404                       # Instruction read bandwidth from this memory (bytes/s)
system.mem_ctrls.bw_write::writebacks        15262474                       # Write bandwidth from this memory (bytes/s)
system.mem_ctrls.bw_write::total             15262474                       # Write bandwidth from this memory (bytes/s)
system.mem_ctrls.bw_total::writebacks        15262474                       # Total bandwidth to/from this memory (bytes/s)
system.mem_ctrls.bw_total::cpu.inst             20404                       # Total bandwidth to/from this memory (bytes/s)
system.mem_ctrls.bw_total::cpu.data          16570665                       # Total bandwidth to/from this memory (bytes/s)
system.mem_ctrls.bw_total::total             31853543                       # Total bandwidth to/from this memory (bytes/s)
system.pwrStateResidencyTicks::UNDEFINED 1110345811000                       # Cumulative time (in ticks) in various power states
system.cpu_voltage_domain.voltage                   1                       # Voltage in Volts
system.cpu_clk_domain.clock                       500                       # Clock period in ticks
system.cpu.dtb.walker.pwrStateResidencyTicks::UNDEFINED 1110345811000                       # Cumulative time (in ticks) in various power states
system.cpu.dtb.rdAccesses                   238245975                       # TLB accesses on read requests
system.cpu.dtb.wrAccesses                    64374646                       # TLB accesses on write requests
system.cpu.dtb.rdMisses                          5921                       # TLB misses on read requests
system.cpu.dtb.wrMisses                           999                       # TLB misses on write requests
system.cpu.apic_clk_domain.clock                 8000                       # Clock period in ticks
system.cpu.interrupts.pwrStateResidencyTicks::UNDEFINED 1110345811000                       # Cumulative time (in ticks) in various power states
system.cpu.itb.walker.pwrStateResidencyTicks::UNDEFINED 1110345811000                       # Cumulative time (in ticks) in various power states
system.cpu.itb.rdAccesses                           0                       # TLB accesses on read requests
system.cpu.itb.wrAccesses                   677335181                       # TLB accesses on write requests
system.cpu.itb.rdMisses                             0                       # TLB misses on read requests
system.cpu.itb.wrMisses                            35                       # TLB misses on write requests
system.cpu.workload.numSyscalls                     9                       # Number of system calls
system.cpu.pwrStateResidencyTicks::ON    1110345811000                       # Cumulative time (in ticks) in various power states
system.cpu.numCycles                       2220691622                       # number of cpu cycles simulated
system.cpu.numWorkItemsStarted                      0                       # number of work items this cpu started
system.cpu.numWorkItemsCompleted                    0                       # number of work items this cpu completed
system.cpu.committedInsts                   504088751                       # Number of instructions committed
system.cpu.committedOps                     817446081                       # Number of ops (including micro ops) committed
system.cpu.num_int_alu_accesses             812629962                       # Number of integer alu accesses
system.cpu.num_fp_alu_accesses                   1943                       # Number of float alu accesses
system.cpu.num_vec_alu_accesses                     0                       # Number of vector alu accesses
system.cpu.num_func_calls                     9452832                       # number of times a function call or return occured
system.cpu.num_conditional_control_insts     46565887                       # number of instructions that are conditional controls
system.cpu.num_int_insts                    812629962                       # number of integer instructions
system.cpu.num_fp_insts                          1943                       # number of float instructions
system.cpu.num_vec_insts                            0                       # number of vector instructions
system.cpu.num_int_register_reads          1822855533                       # number of times the integer registers were read
system.cpu.num_int_register_writes          705741295                       # number of times the integer registers were written
system.cpu.num_fp_register_reads                 3767                       # number of times the floating registers were read
system.cpu.num_fp_register_writes                1480                       # number of times the floating registers were written
system.cpu.num_vec_register_reads                   0                       # number of times the vector registers were read
system.cpu.num_vec_register_writes                  0                       # number of times the vector registers were written
system.cpu.num_cc_register_reads            297557760                       # number of times the CC registers were read
system.cpu.num_cc_register_writes           279904580                       # number of times the CC registers were written
system.cpu.num_mem_refs                     302620620                       # number of memory refs
system.cpu.num_load_insts                   238245974                       # Number of load instructions
system.cpu.num_store_insts                   64374646                       # Number of store instructions
system.cpu.num_idle_cycles                          0                       # Number of idle cycles
system.cpu.num_busy_cycles                 2220691622                       # Number of busy cycles
system.cpu.not_idle_fraction                        1                       # Percentage of non-idle cycles
system.cpu.idle_fraction                            0                       # Percentage of idle cycles
system.cpu.Branches                          60772143                       # Number of branches fetched
system.cpu.op_class::No_OpClass               1362109      0.17%      0.17% # Class of executed instruction
system.cpu.op_class::IntAlu                 505014342     61.78%     61.95% # Class of executed instruction
system.cpu.op_class::IntMult                        4      0.00%     61.95% # Class of executed instruction
system.cpu.op_class::IntDiv                   8448046      1.03%     62.98% # Class of executed instruction
system.cpu.op_class::FloatAdd                      10      0.00%     62.98% # Class of executed instruction
system.cpu.op_class::FloatCmp                       0      0.00%     62.98% # Class of executed instruction
system.cpu.op_class::FloatCvt                       0      0.00%     62.98% # Class of executed instruction
system.cpu.op_class::FloatMult                      0      0.00%     62.98% # Class of executed instruction
system.cpu.op_class::FloatMultAcc                   0      0.00%     62.98% # Class of executed instruction
system.cpu.op_class::FloatDiv                       0      0.00%     62.98% # Class of executed instruction
system.cpu.op_class::FloatMisc                      0      0.00%     62.98% # Class of executed instruction
system.cpu.op_class::FloatSqrt                      0      0.00%     62.98% # Class of executed instruction
system.cpu.op_class::SimdAdd                      374      0.00%     62.98% # Class of executed instruction
system.cpu.op_class::SimdAddAcc                     0      0.00%     62.98% # Class of executed instruction
system.cpu.op_class::SimdAlu                       68      0.00%     62.98% # Class of executed instruction
system.cpu.op_class::SimdCmp                        0      0.00%     62.98% # Class of executed instruction
system.cpu.op_class::SimdCvt                      108      0.00%     62.98% # Class of executed instruction
system.cpu.op_class::SimdMisc                     214      0.00%     62.98% # Class of executed instruction
system.cpu.op_class::SimdMult                       0      0.00%     62.98% # Class of executed instruction
system.cpu.op_class::SimdMultAcc                    0      0.00%     62.98% # Class of executed instruction
system.cpu.op_class::SimdShift                    186      0.00%     62.98% # Class of executed instruction
system.cpu.op_class::SimdShiftAcc                   0      0.00%     62.98% # Class of executed instruction
system.cpu.op_class::SimdSqrt                       0      0.00%     62.98% # Class of executed instruction
system.cpu.op_class::SimdFloatAdd                   0      0.00%     62.98% # Class of executed instruction
system.cpu.op_class::SimdFloatAlu                   0      0.00%     62.98% # Class of executed instruction
system.cpu.op_class::SimdFloatCmp                   0      0.00%     62.98% # Class of executed instruction
system.cpu.op_class::SimdFloatCvt                   0      0.00%     62.98% # Class of executed instruction
system.cpu.op_class::SimdFloatDiv                   0      0.00%     62.98% # Class of executed instruction
system.cpu.op_class::SimdFloatMisc                  0      0.00%     62.98% # Class of executed instruction
system.cpu.op_class::SimdFloatMult                  0      0.00%     62.98% # Class of executed instruction
system.cpu.op_class::SimdFloatMultAcc               0      0.00%     62.98% # Class of executed instruction
system.cpu.op_class::SimdFloatSqrt                  0      0.00%     62.98% # Class of executed instruction
system.cpu.op_class::MemRead                238245918     29.15%     92.12% # Class of executed instruction
system.cpu.op_class::MemWrite                64374231      7.88%    100.00% # Class of executed instruction
system.cpu.op_class::FloatMemRead                  56      0.00%    100.00% # Class of executed instruction
system.cpu.op_class::FloatMemWrite                415      0.00%    100.00% # Class of executed instruction
system.cpu.op_class::IprAccess                      0      0.00%    100.00% # Class of executed instruction
system.cpu.op_class::InstPrefetch                   0      0.00%    100.00% # Class of executed instruction
system.cpu.op_class::total                  817446081                       # Class of executed instruction
system.cpu.dcache.tags.pwrStateResidencyTicks::UNDEFINED 1110345811000                       # Cumulative time (in ticks) in various power states
system.cpu.dcache.tags.tagsinuse           511.823657                       # Cycle average of tags in use
system.cpu.dcache.tags.total_refs           302620621                       # Total number of references to valid blocks.
system.cpu.dcache.tags.sampled_refs            682607                       # Sample count of references to valid blocks.
system.cpu.dcache.tags.avg_refs            443.330673                       # Average number of references to valid blocks.
system.cpu.dcache.tags.warmup_cycle            765000                       # Cycle when the warmup percentage was hit.
system.cpu.dcache.tags.occ_blocks::cpu.data   511.823657                       # Average occupied blocks per requestor
system.cpu.dcache.tags.occ_percent::cpu.data     0.999656                       # Average percentage of cache occupancy
system.cpu.dcache.tags.occ_percent::total     0.999656                       # Average percentage of cache occupancy
system.cpu.dcache.tags.occ_task_id_blocks::1024          512                       # Occupied blocks per task id
system.cpu.dcache.tags.age_task_id_blocks_1024::0           10                       # Occupied blocks per task id
system.cpu.dcache.tags.age_task_id_blocks_1024::1           19                       # Occupied blocks per task id
system.cpu.dcache.tags.age_task_id_blocks_1024::2           54                       # Occupied blocks per task id
system.cpu.dcache.tags.age_task_id_blocks_1024::3          422                       # Occupied blocks per task id
system.cpu.dcache.tags.age_task_id_blocks_1024::4            7                       # Occupied blocks per task id
system.cpu.dcache.tags.occ_task_id_percent::1024            1                       # Percentage of cache occupancy per task id
system.cpu.dcache.tags.tag_accesses         605923849                       # Number of tag accesses
system.cpu.dcache.tags.data_accesses        605923849                       # Number of data accesses
system.cpu.dcache.pwrStateResidencyTicks::UNDEFINED 1110345811000                       # Cumulative time (in ticks) in various power states
system.cpu.dcache.ReadReq_hits::cpu.data    237629879                       # number of ReadReq hits
system.cpu.dcache.ReadReq_hits::total       237629879                       # number of ReadReq hits
system.cpu.dcache.WriteReq_hits::cpu.data     64095916                       # number of WriteReq hits
system.cpu.dcache.WriteReq_hits::total       64095916                       # number of WriteReq hits
system.cpu.dcache.demand_hits::cpu.data     301725795                       # number of demand (read+write) hits
system.cpu.dcache.demand_hits::total        301725795                       # number of demand (read+write) hits
system.cpu.dcache.overall_hits::cpu.data    301725795                       # number of overall hits
system.cpu.dcache.overall_hits::total       301725795                       # number of overall hits
system.cpu.dcache.ReadReq_misses::cpu.data       616096                       # number of ReadReq misses
system.cpu.dcache.ReadReq_misses::total        616096                       # number of ReadReq misses
system.cpu.dcache.WriteReq_misses::cpu.data       278730                       # number of WriteReq misses
system.cpu.dcache.WriteReq_misses::total       278730                       # number of WriteReq misses
system.cpu.dcache.demand_misses::cpu.data       894826                       # number of demand (read+write) misses
system.cpu.dcache.demand_misses::total         894826                       # number of demand (read+write) misses
system.cpu.dcache.overall_misses::cpu.data       894826                       # number of overall misses
system.cpu.dcache.overall_misses::total        894826                       # number of overall misses
system.cpu.dcache.ReadReq_miss_latency::cpu.data 108160298000                       # number of ReadReq miss cycles
system.cpu.dcache.ReadReq_miss_latency::total 108160298000                       # number of ReadReq miss cycles
system.cpu.dcache.WriteReq_miss_latency::cpu.data  23056237000                       # number of WriteReq miss cycles
system.cpu.dcache.WriteReq_miss_latency::total  23056237000                       # number of WriteReq miss cycles
system.cpu.dcache.demand_miss_latency::cpu.data 131216535000                       # number of demand (read+write) miss cycles
system.cpu.dcache.demand_miss_latency::total 131216535000                       # number of demand (read+write) miss cycles
system.cpu.dcache.overall_miss_latency::cpu.data 131216535000                       # number of overall miss cycles
system.cpu.dcache.overall_miss_latency::total 131216535000                       # number of overall miss cycles
system.cpu.dcache.ReadReq_accesses::cpu.data    238245975                       # number of ReadReq accesses(hits+misses)
system.cpu.dcache.ReadReq_accesses::total    238245975                       # number of ReadReq accesses(hits+misses)
system.cpu.dcache.WriteReq_accesses::cpu.data     64374646                       # number of WriteReq accesses(hits+misses)
system.cpu.dcache.WriteReq_accesses::total     64374646                       # number of WriteReq accesses(hits+misses)
system.cpu.dcache.demand_accesses::cpu.data    302620621                       # number of demand (read+write) accesses
system.cpu.dcache.demand_accesses::total    302620621                       # number of demand (read+write) accesses
system.cpu.dcache.overall_accesses::cpu.data    302620621                       # number of overall (read+write) accesses
system.cpu.dcache.overall_accesses::total    302620621                       # number of overall (read+write) accesses
system.cpu.dcache.ReadReq_miss_rate::cpu.data     0.002586                       # miss rate for ReadReq accesses
system.cpu.dcache.ReadReq_miss_rate::total     0.002586                       # miss rate for ReadReq accesses
system.cpu.dcache.WriteReq_miss_rate::cpu.data     0.004330                       # miss rate for WriteReq accesses
system.cpu.dcache.WriteReq_miss_rate::total     0.004330                       # miss rate for WriteReq accesses
system.cpu.dcache.demand_miss_rate::cpu.data     0.002957                       # miss rate for demand accesses
system.cpu.dcache.demand_miss_rate::total     0.002957                       # miss rate for demand accesses
system.cpu.dcache.overall_miss_rate::cpu.data     0.002957                       # miss rate for overall accesses
system.cpu.dcache.overall_miss_rate::total     0.002957                       # miss rate for overall accesses
system.cpu.dcache.ReadReq_avg_miss_latency::cpu.data 175557.539734                       # average ReadReq miss latency
system.cpu.dcache.ReadReq_avg_miss_latency::total 175557.539734                       # average ReadReq miss latency
system.cpu.dcache.WriteReq_avg_miss_latency::cpu.data 82718.892835                       # average WriteReq miss latency
system.cpu.dcache.WriteReq_avg_miss_latency::total 82718.892835                       # average WriteReq miss latency
system.cpu.dcache.demand_avg_miss_latency::cpu.data 146639.162251                       # average overall miss latency
system.cpu.dcache.demand_avg_miss_latency::total 146639.162251                       # average overall miss latency
system.cpu.dcache.overall_avg_miss_latency::cpu.data 146639.162251                       # average overall miss latency
system.cpu.dcache.overall_avg_miss_latency::total 146639.162251                       # average overall miss latency
system.cpu.dcache.blocked_cycles::no_mshrs            0                       # number of cycles access was blocked
system.cpu.dcache.blocked_cycles::no_targets            0                       # number of cycles access was blocked
system.cpu.dcache.blocked::no_mshrs                 0                       # number of cycles access was blocked
system.cpu.dcache.blocked::no_targets               0                       # number of cycles access was blocked
system.cpu.dcache.avg_blocked_cycles::no_mshrs          nan                       # average number of cycles each access was blocked
system.cpu.dcache.avg_blocked_cycles::no_targets          nan                       # average number of cycles each access was blocked
system.cpu.dcache.writebacks::writebacks       657658                       # number of writebacks
system.cpu.dcache.writebacks::total            657658                       # number of writebacks
system.cpu.dcache.ReadReq_mshr_misses::cpu.data       616096                       # number of ReadReq MSHR misses
system.cpu.dcache.ReadReq_mshr_misses::total       616096                       # number of ReadReq MSHR misses
system.cpu.dcache.WriteReq_mshr_misses::cpu.data       278730                       # number of WriteReq MSHR misses
system.cpu.dcache.WriteReq_mshr_misses::total       278730                       # number of WriteReq MSHR misses
system.cpu.dcache.demand_mshr_misses::cpu.data       894826                       # number of demand (read+write) MSHR misses
system.cpu.dcache.demand_mshr_misses::total       894826                       # number of demand (read+write) MSHR misses
system.cpu.dcache.overall_mshr_misses::cpu.data       894826                       # number of overall MSHR misses
system.cpu.dcache.overall_mshr_misses::total       894826                       # number of overall MSHR misses
system.cpu.dcache.ReadReq_mshr_miss_latency::cpu.data 107544202000                       # number of ReadReq MSHR miss cycles
system.cpu.dcache.ReadReq_mshr_miss_latency::total 107544202000                       # number of ReadReq MSHR miss cycles
system.cpu.dcache.WriteReq_mshr_miss_latency::cpu.data  22777507000                       # number of WriteReq MSHR miss cycles
system.cpu.dcache.WriteReq_mshr_miss_latency::total  22777507000                       # number of WriteReq MSHR miss cycles
system.cpu.dcache.demand_mshr_miss_latency::cpu.data 130321709000                       # number of demand (read+write) MSHR miss cycles
system.cpu.dcache.demand_mshr_miss_latency::total 130321709000                       # number of demand (read+write) MSHR miss cycles
system.cpu.dcache.overall_mshr_miss_latency::cpu.data 130321709000                       # number of overall MSHR miss cycles
system.cpu.dcache.overall_mshr_miss_latency::total 130321709000                       # number of overall MSHR miss cycles
system.cpu.dcache.ReadReq_mshr_miss_rate::cpu.data     0.002586                       # mshr miss rate for ReadReq accesses
system.cpu.dcache.ReadReq_mshr_miss_rate::total     0.002586                       # mshr miss rate for ReadReq accesses
system.cpu.dcache.WriteReq_mshr_miss_rate::cpu.data     0.004330                       # mshr miss rate for WriteReq accesses
system.cpu.dcache.WriteReq_mshr_miss_rate::total     0.004330                       # mshr miss rate for WriteReq accesses
system.cpu.dcache.demand_mshr_miss_rate::cpu.data     0.002957                       # mshr miss rate for demand accesses
system.cpu.dcache.demand_mshr_miss_rate::total     0.002957                       # mshr miss rate for demand accesses
system.cpu.dcache.overall_mshr_miss_rate::cpu.data     0.002957                       # mshr miss rate for overall accesses
system.cpu.dcache.overall_mshr_miss_rate::total     0.002957                       # mshr miss rate for overall accesses
system.cpu.dcache.ReadReq_avg_mshr_miss_latency::cpu.data 174557.539734                       # average ReadReq mshr miss latency
system.cpu.dcache.ReadReq_avg_mshr_miss_latency::total 174557.539734                       # average ReadReq mshr miss latency
system.cpu.dcache.WriteReq_avg_mshr_miss_latency::cpu.data 81718.892835                       # average WriteReq mshr miss latency
system.cpu.dcache.WriteReq_avg_mshr_miss_latency::total 81718.892835                       # average WriteReq mshr miss latency
system.cpu.dcache.demand_avg_mshr_miss_latency::cpu.data 145639.162251                       # average overall mshr miss latency
system.cpu.dcache.demand_avg_mshr_miss_latency::total 145639.162251                       # average overall mshr miss latency
system.cpu.dcache.overall_avg_mshr_miss_latency::cpu.data 145639.162251                       # average overall mshr miss latency
system.cpu.dcache.overall_avg_mshr_miss_latency::total 145639.162251                       # average overall mshr miss latency
system.cpu.dcache.replacements                 682095                       # number of replacements
system.cpu.dtb_walker_cache.tags.pwrStateResidencyTicks::UNDEFINED 1110345811000                       # Cumulative time (in ticks) in various power states
system.cpu.dtb_walker_cache.tags.tagsinuse            0                       # Cycle average of tags in use
system.cpu.dtb_walker_cache.tags.total_refs            0                       # Total number of references to valid blocks.
system.cpu.dtb_walker_cache.tags.sampled_refs            0                       # Sample count of references to valid blocks.
system.cpu.dtb_walker_cache.tags.avg_refs          nan                       # Average number of references to valid blocks.
system.cpu.dtb_walker_cache.tags.warmup_cycle            0                       # Cycle when the warmup percentage was hit.
system.cpu.dtb_walker_cache.tags.tag_accesses            0                       # Number of tag accesses
system.cpu.dtb_walker_cache.tags.data_accesses            0                       # Number of data accesses
system.cpu.dtb_walker_cache.pwrStateResidencyTicks::UNDEFINED 1110345811000                       # Cumulative time (in ticks) in various power states
system.cpu.dtb_walker_cache.blocked_cycles::no_mshrs            0                       # number of cycles access was blocked
system.cpu.dtb_walker_cache.blocked_cycles::no_targets            0                       # number of cycles access was blocked
system.cpu.dtb_walker_cache.blocked::no_mshrs            0                       # number of cycles access was blocked
system.cpu.dtb_walker_cache.blocked::no_targets            0                       # number of cycles access was blocked
system.cpu.dtb_walker_cache.avg_blocked_cycles::no_mshrs          nan                       # average number of cycles each access was blocked
system.cpu.dtb_walker_cache.avg_blocked_cycles::no_targets          nan                       # average number of cycles each access was blocked
system.cpu.dtb_walker_cache.replacements            0                       # number of replacements
system.cpu.icache.tags.pwrStateResidencyTicks::UNDEFINED 1110345811000                       # Cumulative time (in ticks) in various power states
system.cpu.icache.tags.tagsinuse           279.476470                       # Cycle average of tags in use
system.cpu.icache.tags.total_refs           677335181                       # Total number of references to valid blocks.
system.cpu.icache.tags.sampled_refs               354                       # Sample count of references to valid blocks.
system.cpu.icache.tags.avg_refs          1913376.217514                       # Average number of references to valid blocks.
system.cpu.icache.tags.warmup_cycle            445000                       # Cycle when the warmup percentage was hit.
system.cpu.icache.tags.occ_blocks::cpu.inst   279.476470                       # Average occupied blocks per requestor
system.cpu.icache.tags.occ_percent::cpu.inst     0.545852                       # Average percentage of cache occupancy
system.cpu.icache.tags.occ_percent::total     0.545852                       # Average percentage of cache occupancy
system.cpu.icache.tags.occ_task_id_blocks::1024          306                       # Occupied blocks per task id
system.cpu.icache.tags.age_task_id_blocks_1024::0           13                       # Occupied blocks per task id
system.cpu.icache.tags.age_task_id_blocks_1024::1           26                       # Occupied blocks per task id
system.cpu.icache.tags.age_task_id_blocks_1024::4          267                       # Occupied blocks per task id
system.cpu.icache.tags.occ_task_id_percent::1024     0.597656                       # Percentage of cache occupancy per task id
system.cpu.icache.tags.tag_accesses        1354670716                       # Number of tag accesses
system.cpu.icache.tags.data_accesses       1354670716                       # Number of data accesses
system.cpu.icache.pwrStateResidencyTicks::UNDEFINED 1110345811000                       # Cumulative time (in ticks) in various power states
system.cpu.icache.ReadReq_hits::cpu.inst    677334827                       # number of ReadReq hits
system.cpu.icache.ReadReq_hits::total       677334827                       # number of ReadReq hits
system.cpu.icache.demand_hits::cpu.inst     677334827                       # number of demand (read+write) hits
system.cpu.icache.demand_hits::total        677334827                       # number of demand (read+write) hits
system.cpu.icache.overall_hits::cpu.inst    677334827                       # number of overall hits
system.cpu.icache.overall_hits::total       677334827                       # number of overall hits
system.cpu.icache.ReadReq_misses::cpu.inst          354                       # number of ReadReq misses
system.cpu.icache.ReadReq_misses::total           354                       # number of ReadReq misses
system.cpu.icache.demand_misses::cpu.inst          354                       # number of demand (read+write) misses
system.cpu.icache.demand_misses::total            354                       # number of demand (read+write) misses
system.cpu.icache.overall_misses::cpu.inst          354                       # number of overall misses
system.cpu.icache.overall_misses::total           354                       # number of overall misses
system.cpu.icache.ReadReq_miss_latency::cpu.inst     68656000                       # number of ReadReq miss cycles
system.cpu.icache.ReadReq_miss_latency::total     68656000                       # number of ReadReq miss cycles
system.cpu.icache.demand_miss_latency::cpu.inst     68656000                       # number of demand (read+write) miss cycles
system.cpu.icache.demand_miss_latency::total     68656000                       # number of demand (read+write) miss cycles
system.cpu.icache.overall_miss_latency::cpu.inst     68656000                       # number of overall miss cycles
system.cpu.icache.overall_miss_latency::total     68656000                       # number of overall miss cycles
system.cpu.icache.ReadReq_accesses::cpu.inst    677335181                       # number of ReadReq accesses(hits+misses)
system.cpu.icache.ReadReq_accesses::total    677335181                       # number of ReadReq accesses(hits+misses)
system.cpu.icache.demand_accesses::cpu.inst    677335181                       # number of demand (read+write) accesses
system.cpu.icache.demand_accesses::total    677335181                       # number of demand (read+write) accesses
system.cpu.icache.overall_accesses::cpu.inst    677335181                       # number of overall (read+write) accesses
system.cpu.icache.overall_accesses::total    677335181                       # number of overall (read+write) accesses
system.cpu.icache.ReadReq_miss_rate::cpu.inst     0.000001                       # miss rate for ReadReq accesses
system.cpu.icache.ReadReq_miss_rate::total     0.000001                       # miss rate for ReadReq accesses
system.cpu.icache.demand_miss_rate::cpu.inst     0.000001                       # miss rate for demand accesses
system.cpu.icache.demand_miss_rate::total     0.000001                       # miss rate for demand accesses
system.cpu.icache.overall_miss_rate::cpu.inst     0.000001                       # miss rate for overall accesses
system.cpu.icache.overall_miss_rate::total     0.000001                       # miss rate for overall accesses
system.cpu.icache.ReadReq_avg_miss_latency::cpu.inst 193943.502825                       # average ReadReq miss latency
system.cpu.icache.ReadReq_avg_miss_latency::total 193943.502825                       # average ReadReq miss latency
system.cpu.icache.demand_avg_miss_latency::cpu.inst 193943.502825                       # average overall miss latency
system.cpu.icache.demand_avg_miss_latency::total 193943.502825                       # average overall miss latency
system.cpu.icache.overall_avg_miss_latency::cpu.inst 193943.502825                       # average overall miss latency
system.cpu.icache.overall_avg_miss_latency::total 193943.502825                       # average overall miss latency
system.cpu.icache.blocked_cycles::no_mshrs            0                       # number of cycles access was blocked
system.cpu.icache.blocked_cycles::no_targets            0                       # number of cycles access was blocked
system.cpu.icache.blocked::no_mshrs                 0                       # number of cycles access was blocked
system.cpu.icache.blocked::no_targets               0                       # number of cycles access was blocked
system.cpu.icache.avg_blocked_cycles::no_mshrs          nan                       # average number of cycles each access was blocked
system.cpu.icache.avg_blocked_cycles::no_targets          nan                       # average number of cycles each access was blocked
system.cpu.icache.ReadReq_mshr_misses::cpu.inst          354                       # number of ReadReq MSHR misses
system.cpu.icache.ReadReq_mshr_misses::total          354                       # number of ReadReq MSHR misses
system.cpu.icache.demand_mshr_misses::cpu.inst          354                       # number of demand (read+write) MSHR misses
system.cpu.icache.demand_mshr_misses::total          354                       # number of demand (read+write) MSHR misses
system.cpu.icache.overall_mshr_misses::cpu.inst          354                       # number of overall MSHR misses
system.cpu.icache.overall_mshr_misses::total          354                       # number of overall MSHR misses
system.cpu.icache.ReadReq_mshr_miss_latency::cpu.inst     68302000                       # number of ReadReq MSHR miss cycles
system.cpu.icache.ReadReq_mshr_miss_latency::total     68302000                       # number of ReadReq MSHR miss cycles
system.cpu.icache.demand_mshr_miss_latency::cpu.inst     68302000                       # number of demand (read+write) MSHR miss cycles
system.cpu.icache.demand_mshr_miss_latency::total     68302000                       # number of demand (read+write) MSHR miss cycles
system.cpu.icache.overall_mshr_miss_latency::cpu.inst     68302000                       # number of overall MSHR miss cycles
system.cpu.icache.overall_mshr_miss_latency::total     68302000                       # number of overall MSHR miss cycles
system.cpu.icache.ReadReq_mshr_miss_rate::cpu.inst     0.000001                       # mshr miss rate for ReadReq accesses
system.cpu.icache.ReadReq_mshr_miss_rate::total     0.000001                       # mshr miss rate for ReadReq accesses
system.cpu.icache.demand_mshr_miss_rate::cpu.inst     0.000001                       # mshr miss rate for demand accesses
system.cpu.icache.demand_mshr_miss_rate::total     0.000001                       # mshr miss rate for demand accesses
system.cpu.icache.overall_mshr_miss_rate::cpu.inst     0.000001                       # mshr miss rate for overall accesses
system.cpu.icache.overall_mshr_miss_rate::total     0.000001                       # mshr miss rate for overall accesses
system.cpu.icache.ReadReq_avg_mshr_miss_latency::cpu.inst 192943.502825                       # average ReadReq mshr miss latency
system.cpu.icache.ReadReq_avg_mshr_miss_latency::total 192943.502825                       # average ReadReq mshr miss latency
system.cpu.icache.demand_avg_mshr_miss_latency::cpu.inst 192943.502825                       # average overall mshr miss latency
system.cpu.icache.demand_avg_mshr_miss_latency::total 192943.502825                       # average overall mshr miss latency
system.cpu.icache.overall_avg_mshr_miss_latency::cpu.inst 192943.502825                       # average overall mshr miss latency
system.cpu.icache.overall_avg_mshr_miss_latency::total 192943.502825                       # average overall mshr miss latency
system.cpu.icache.replacements                     48                       # number of replacements
system.cpu.itb_walker_cache.tags.pwrStateResidencyTicks::UNDEFINED 1110345811000                       # Cumulative time (in ticks) in various power states
system.cpu.itb_walker_cache.tags.tagsinuse            0                       # Cycle average of tags in use
system.cpu.itb_walker_cache.tags.total_refs            0                       # Total number of references to valid blocks.
system.cpu.itb_walker_cache.tags.sampled_refs            0                       # Sample count of references to valid blocks.
system.cpu.itb_walker_cache.tags.avg_refs          nan                       # Average number of references to valid blocks.
system.cpu.itb_walker_cache.tags.warmup_cycle            0                       # Cycle when the warmup percentage was hit.
system.cpu.itb_walker_cache.tags.tag_accesses            0                       # Number of tag accesses
system.cpu.itb_walker_cache.tags.data_accesses            0                       # Number of data accesses
system.cpu.itb_walker_cache.pwrStateResidencyTicks::UNDEFINED 1110345811000                       # Cumulative time (in ticks) in various power states
system.cpu.itb_walker_cache.blocked_cycles::no_mshrs            0                       # number of cycles access was blocked
system.cpu.itb_walker_cache.blocked_cycles::no_targets            0                       # number of cycles access was blocked
system.cpu.itb_walker_cache.blocked::no_mshrs            0                       # number of cycles access was blocked
system.cpu.itb_walker_cache.blocked::no_targets            0                       # number of cycles access was blocked
system.cpu.itb_walker_cache.avg_blocked_cycles::no_mshrs          nan                       # average number of cycles each access was blocked
system.cpu.itb_walker_cache.avg_blocked_cycles::no_targets          nan                       # average number of cycles each access was blocked
system.cpu.itb_walker_cache.replacements            0                       # number of replacements
system.l2.tags.pwrStateResidencyTicks::UNDEFINED 1110345811000                       # Cumulative time (in ticks) in various power states
system.l2.tags.tagsinuse                  2045.599501                       # Cycle average of tags in use
system.l2.tags.total_refs                     1577310                       # Total number of references to valid blocks.
system.l2.tags.sampled_refs                    518826                       # Sample count of references to valid blocks.
system.l2.tags.avg_refs                      3.040152                       # Average number of references to valid blocks.
system.l2.tags.warmup_cycle                    434500                       # Cycle when the warmup percentage was hit.
system.l2.tags.occ_blocks::writebacks        1.014118                       # Average occupied blocks per requestor
system.l2.tags.occ_blocks::cpu.inst          0.924177                       # Average occupied blocks per requestor
system.l2.tags.occ_blocks::cpu.data       2043.661206                       # Average occupied blocks per requestor
system.l2.tags.occ_percent::writebacks       0.000495                       # Average percentage of cache occupancy
system.l2.tags.occ_percent::cpu.inst         0.000451                       # Average percentage of cache occupancy
system.l2.tags.occ_percent::cpu.data         0.997881                       # Average percentage of cache occupancy
system.l2.tags.occ_percent::total            0.998828                       # Average percentage of cache occupancy
system.l2.tags.occ_task_id_blocks::1024          2048                       # Occupied blocks per task id
system.l2.tags.age_task_id_blocks_1024::0           23                       # Occupied blocks per task id
system.l2.tags.age_task_id_blocks_1024::1           44                       # Occupied blocks per task id
system.l2.tags.age_task_id_blocks_1024::3          450                       # Occupied blocks per task id
system.l2.tags.age_task_id_blocks_1024::4         1531                       # Occupied blocks per task id
system.l2.tags.occ_task_id_percent::1024            1                       # Percentage of cache occupancy per task id
system.l2.tags.tag_accesses                  13137410                       # Number of tag accesses
system.l2.tags.data_accesses                 13137410                       # Number of data accesses
system.l2.pwrStateResidencyTicks::UNDEFINED 1110345811000                       # Cumulative time (in ticks) in various power states
system.l2.WritebackDirty_hits::writebacks       657658                       # number of WritebackDirty hits
system.l2.WritebackDirty_hits::total           657658                       # number of WritebackDirty hits
system.l2.UpgradeReq_hits::cpu.data            212219                       # number of UpgradeReq hits
system.l2.UpgradeReq_hits::total               212219                       # number of UpgradeReq hits
system.l2.ReadExReq_hits::cpu.data               3076                       # number of ReadExReq hits
system.l2.ReadExReq_hits::total                  3076                       # number of ReadExReq hits
system.l2.ReadSharedReq_hits::cpu.data         161153                       # number of ReadSharedReq hits
system.l2.ReadSharedReq_hits::total            161153                       # number of ReadSharedReq hits
system.l2.demand_hits::cpu.data                164229                       # number of demand (read+write) hits
system.l2.demand_hits::total                   164229                       # number of demand (read+write) hits
system.l2.overall_hits::cpu.data               164229                       # number of overall hits
system.l2.overall_hits::total                  164229                       # number of overall hits
system.l2.ReadExReq_misses::cpu.data            63435                       # number of ReadExReq misses
system.l2.ReadExReq_misses::total               63435                       # number of ReadExReq misses
system.l2.ReadSharedReq_misses::cpu.inst          354                       # number of ReadSharedReq misses
system.l2.ReadSharedReq_misses::cpu.data       454943                       # number of ReadSharedReq misses
system.l2.ReadSharedReq_misses::total          455297                       # number of ReadSharedReq misses
system.l2.demand_misses::cpu.inst                 354                       # number of demand (read+write) misses
system.l2.demand_misses::cpu.data              518378                       # number of demand (read+write) misses
system.l2.demand_misses::total                 518732                       # number of demand (read+write) misses
system.l2.overall_misses::cpu.inst                354                       # number of overall misses
system.l2.overall_misses::cpu.data             518378                       # number of overall misses
system.l2.overall_misses::total                518732                       # number of overall misses
system.l2.ReadExReq_miss_latency::cpu.data  20098814500                       # number of ReadExReq miss cycles
system.l2.ReadExReq_miss_latency::total   20098814500                       # number of ReadExReq miss cycles
system.l2.ReadSharedReq_miss_latency::cpu.inst     67771000                       # number of ReadSharedReq miss cycles
system.l2.ReadSharedReq_miss_latency::cpu.data 104927951500                       # number of ReadSharedReq miss cycles
system.l2.ReadSharedReq_miss_latency::total 104995722500                       # number of ReadSharedReq miss cycles
system.l2.demand_miss_latency::cpu.inst      67771000                       # number of demand (read+write) miss cycles
system.l2.demand_miss_latency::cpu.data  125026766000                       # number of demand (read+write) miss cycles
system.l2.demand_miss_latency::total     125094537000                       # number of demand (read+write) miss cycles
system.l2.overall_miss_latency::cpu.inst     67771000                       # number of overall miss cycles
system.l2.overall_miss_latency::cpu.data 125026766000                       # number of overall miss cycles
system.l2.overall_miss_latency::total    125094537000                       # number of overall miss cycles
system.l2.WritebackDirty_accesses::writebacks       657658                       # number of WritebackDirty accesses(hits+misses)
system.l2.WritebackDirty_accesses::total       657658                       # number of WritebackDirty accesses(hits+misses)
system.l2.UpgradeReq_accesses::cpu.data        212219                       # number of UpgradeReq accesses(hits+misses)
system.l2.UpgradeReq_accesses::total           212219                       # number of UpgradeReq accesses(hits+misses)
system.l2.ReadExReq_accesses::cpu.data          66511                       # number of ReadExReq accesses(hits+misses)
system.l2.ReadExReq_accesses::total             66511                       # number of ReadExReq accesses(hits+misses)
system.l2.ReadSharedReq_accesses::cpu.inst          354                       # number of ReadSharedReq accesses(hits+misses)
system.l2.ReadSharedReq_accesses::cpu.data       616096                       # number of ReadSharedReq accesses(hits+misses)
system.l2.ReadSharedReq_accesses::total        616450                       # number of ReadSharedReq accesses(hits+misses)
system.l2.demand_accesses::cpu.inst               354                       # number of demand (read+write) accesses
system.l2.demand_accesses::cpu.data            682607                       # number of demand (read+write) accesses
system.l2.demand_accesses::total               682961                       # number of demand (read+write) accesses
system.l2.overall_accesses::cpu.inst              354                       # number of overall (read+write) accesses
system.l2.overall_accesses::cpu.data           682607                       # number of overall (read+write) accesses
system.l2.overall_accesses::total              682961                       # number of overall (read+write) accesses
system.l2.ReadExReq_miss_rate::cpu.data      0.953752                       # miss rate for ReadExReq accesses
system.l2.ReadExReq_miss_rate::total         0.953752                       # miss rate for ReadExReq accesses
system.l2.ReadSharedReq_miss_rate::cpu.inst            1                       # miss rate for ReadSharedReq accesses
system.l2.ReadSharedReq_miss_rate::cpu.data     0.738429                       # miss rate for ReadSharedReq accesses
system.l2.ReadSharedReq_miss_rate::total     0.738579                       # miss rate for ReadSharedReq accesses
system.l2.demand_miss_rate::cpu.inst                1                       # miss rate for demand accesses
system.l2.demand_miss_rate::cpu.data         0.759409                       # miss rate for demand accesses
system.l2.demand_miss_rate::total            0.759534                       # miss rate for demand accesses
system.l2.overall_miss_rate::cpu.inst               1                       # miss rate for overall accesses
system.l2.overall_miss_rate::cpu.data        0.759409                       # miss rate for overall accesses
system.l2.overall_miss_rate::total           0.759534                       # miss rate for overall accesses
system.l2.ReadExReq_avg_miss_latency::cpu.data 316841.089304                       # average ReadExReq miss latency
system.l2.ReadExReq_avg_miss_latency::total 316841.089304                       # average ReadExReq miss latency
system.l2.ReadSharedReq_avg_miss_latency::cpu.inst 191443.502825                       # average ReadSharedReq miss latency
system.l2.ReadSharedReq_avg_miss_latency::cpu.data 230639.775752                       # average ReadSharedReq miss latency
system.l2.ReadSharedReq_avg_miss_latency::total 230609.300083                       # average ReadSharedReq miss latency
system.l2.demand_avg_miss_latency::cpu.inst 191443.502825                       # average overall miss latency
system.l2.demand_avg_miss_latency::cpu.data 241188.410774                       # average overall miss latency
system.l2.demand_avg_miss_latency::total 241154.463191                       # average overall miss latency
system.l2.overall_avg_miss_latency::cpu.inst 191443.502825                       # average overall miss latency
system.l2.overall_avg_miss_latency::cpu.data 241188.410774                       # average overall miss latency
system.l2.overall_avg_miss_latency::total 241154.463191                       # average overall miss latency
system.l2.blocked_cycles::no_mshrs                  0                       # number of cycles access was blocked
system.l2.blocked_cycles::no_targets                0                       # number of cycles access was blocked
system.l2.blocked::no_mshrs                         0                       # number of cycles access was blocked
system.l2.blocked::no_targets                       0                       # number of cycles access was blocked
system.l2.avg_blocked_cycles::no_mshrs            nan                       # average number of cycles each access was blocked
system.l2.avg_blocked_cycles::no_targets          nan                       # average number of cycles each access was blocked
system.l2.writebacks::writebacks               508273                       # number of writebacks
system.l2.writebacks::total                    508273                       # number of writebacks
system.l2.CleanEvict_mshr_misses::writebacks           13                       # number of CleanEvict MSHR misses
system.l2.CleanEvict_mshr_misses::total            13                       # number of CleanEvict MSHR misses
system.l2.ReadExReq_mshr_misses::cpu.data        63435                       # number of ReadExReq MSHR misses
system.l2.ReadExReq_mshr_misses::total          63435                       # number of ReadExReq MSHR misses
system.l2.ReadSharedReq_mshr_misses::cpu.inst          354                       # number of ReadSharedReq MSHR misses
system.l2.ReadSharedReq_mshr_misses::cpu.data       454943                       # number of ReadSharedReq MSHR misses
system.l2.ReadSharedReq_mshr_misses::total       455297                       # number of ReadSharedReq MSHR misses
system.l2.demand_mshr_misses::cpu.inst            354                       # number of demand (read+write) MSHR misses
system.l2.demand_mshr_misses::cpu.data         518378                       # number of demand (read+write) MSHR misses
system.l2.demand_mshr_misses::total            518732                       # number of demand (read+write) MSHR misses
system.l2.overall_mshr_misses::cpu.inst           354                       # number of overall MSHR misses
system.l2.overall_mshr_misses::cpu.data        518378                       # number of overall MSHR misses
system.l2.overall_mshr_misses::total           518732                       # number of overall MSHR misses
system.l2.ReadExReq_mshr_miss_latency::cpu.data  19464464500                       # number of ReadExReq MSHR miss cycles
system.l2.ReadExReq_mshr_miss_latency::total  19464464500                       # number of ReadExReq MSHR miss cycles
system.l2.ReadSharedReq_mshr_miss_latency::cpu.inst     64231000                       # number of ReadSharedReq MSHR miss cycles
system.l2.ReadSharedReq_mshr_miss_latency::cpu.data 100378521500                       # number of ReadSharedReq MSHR miss cycles
system.l2.ReadSharedReq_mshr_miss_latency::total 100442752500                       # number of ReadSharedReq MSHR miss cycles
system.l2.demand_mshr_miss_latency::cpu.inst     64231000                       # number of demand (read+write) MSHR miss cycles
system.l2.demand_mshr_miss_latency::cpu.data 119842986000                       # number of demand (read+write) MSHR miss cycles
system.l2.demand_mshr_miss_latency::total 119907217000                       # number of demand (read+write) MSHR miss cycles
system.l2.overall_mshr_miss_latency::cpu.inst     64231000                       # number of overall MSHR miss cycles
system.l2.overall_mshr_miss_latency::cpu.data 119842986000                       # number of overall MSHR miss cycles
system.l2.overall_mshr_miss_latency::total 119907217000                       # number of overall MSHR miss cycles
system.l2.CleanEvict_mshr_miss_rate::writebacks          inf                       # mshr miss rate for CleanEvict accesses
system.l2.CleanEvict_mshr_miss_rate::total          inf                       # mshr miss rate for CleanEvict accesses
system.l2.ReadExReq_mshr_miss_rate::cpu.data     0.953752                       # mshr miss rate for ReadExReq accesses
system.l2.ReadExReq_mshr_miss_rate::total     0.953752                       # mshr miss rate for ReadExReq accesses
system.l2.ReadSharedReq_mshr_miss_rate::cpu.inst            1                       # mshr miss rate for ReadSharedReq accesses
system.l2.ReadSharedReq_mshr_miss_rate::cpu.data     0.738429                       # mshr miss rate for ReadSharedReq accesses
system.l2.ReadSharedReq_mshr_miss_rate::total     0.738579                       # mshr miss rate for ReadSharedReq accesses
system.l2.demand_mshr_miss_rate::cpu.inst            1                       # mshr miss rate for demand accesses
system.l2.demand_mshr_miss_rate::cpu.data     0.759409                       # mshr miss rate for demand accesses
system.l2.demand_mshr_miss_rate::total       0.759534                       # mshr miss rate for demand accesses
system.l2.overall_mshr_miss_rate::cpu.inst            1                       # mshr miss rate for overall accesses
system.l2.overall_mshr_miss_rate::cpu.data     0.759409                       # mshr miss rate for overall accesses
system.l2.overall_mshr_miss_rate::total      0.759534                       # mshr miss rate for overall accesses
system.l2.ReadExReq_avg_mshr_miss_latency::cpu.data 306841.089304                       # average ReadExReq mshr miss latency
system.l2.ReadExReq_avg_mshr_miss_latency::total 306841.089304                       # average ReadExReq mshr miss latency
system.l2.ReadSharedReq_avg_mshr_miss_latency::cpu.inst 181443.502825                       # average ReadSharedReq mshr miss latency
system.l2.ReadSharedReq_avg_mshr_miss_latency::cpu.data 220639.775752                       # average ReadSharedReq mshr miss latency
system.l2.ReadSharedReq_avg_mshr_miss_latency::total 220609.300083                       # average ReadSharedReq mshr miss latency
system.l2.demand_avg_mshr_miss_latency::cpu.inst 181443.502825                       # average overall mshr miss latency
system.l2.demand_avg_mshr_miss_latency::cpu.data 231188.410774                       # average overall mshr miss latency
system.l2.demand_avg_mshr_miss_latency::total 231154.463191                       # average overall mshr miss latency
system.l2.overall_avg_mshr_miss_latency::cpu.inst 181443.502825                       # average overall mshr miss latency
system.l2.overall_avg_mshr_miss_latency::cpu.data 231188.410774                       # average overall mshr miss latency
system.l2.overall_avg_mshr_miss_latency::total 231154.463191                       # average overall mshr miss latency
system.l2.replacements                         516778                       # number of replacements
system.l3.tags.pwrStateResidencyTicks::UNDEFINED 1110345811000                       # Cumulative time (in ticks) in various power states
system.l3.tags.tagsinuse                 16154.461257                       # Cycle average of tags in use
system.l3.tags.total_refs                     1035136                       # Total number of references to valid blocks.
system.l3.tags.sampled_refs                    287855                       # Sample count of references to valid blocks.
system.l3.tags.avg_refs                      3.596033                       # Average number of references to valid blocks.
system.l3.tags.warmup_cycle                    418000                       # Cycle when the warmup percentage was hit.
system.l3.tags.occ_blocks::writebacks        0.887500                       # Average occupied blocks per requestor
system.l3.tags.occ_blocks::cpu.inst          9.039499                       # Average occupied blocks per requestor
system.l3.tags.occ_blocks::cpu.data      16144.534258                       # Average occupied blocks per requestor
system.l3.tags.occ_percent::writebacks       0.000054                       # Average percentage of cache occupancy
system.l3.tags.occ_percent::cpu.inst         0.000552                       # Average percentage of cache occupancy
system.l3.tags.occ_percent::cpu.data         0.985384                       # Average percentage of cache occupancy
system.l3.tags.occ_percent::total            0.985990                       # Average percentage of cache occupancy
system.l3.tags.occ_task_id_blocks::1024         16384                       # Occupied blocks per task id
system.l3.tags.age_task_id_blocks_1024::0           23                       # Occupied blocks per task id
system.l3.tags.age_task_id_blocks_1024::1           42                       # Occupied blocks per task id
system.l3.tags.age_task_id_blocks_1024::4        16319                       # Occupied blocks per task id
system.l3.tags.occ_task_id_percent::1024            1                       # Percentage of cache occupancy per task id
system.l3.tags.tag_accesses                  66537327                       # Number of tag accesses
system.l3.tags.data_accesses                 66537327                       # Number of data accesses
system.l3.pwrStateResidencyTicks::UNDEFINED 1110345811000                       # Cumulative time (in ticks) in various power states
system.l3.WritebackDirty_hits::writebacks       508273                       # number of WritebackDirty hits
system.l3.WritebackDirty_hits::total           508273                       # number of WritebackDirty hits
system.l3.ReadExReq_hits::cpu.data                695                       # number of ReadExReq hits
system.l3.ReadExReq_hits::total                   695                       # number of ReadExReq hits
system.l3.ReadSharedReq_hits::cpu.data         230196                       # number of ReadSharedReq hits
system.l3.ReadSharedReq_hits::total            230196                       # number of ReadSharedReq hits
system.l3.demand_hits::cpu.data                230891                       # number of demand (read+write) hits
system.l3.demand_hits::total                   230891                       # number of demand (read+write) hits
system.l3.overall_hits::cpu.data               230891                       # number of overall hits
system.l3.overall_hits::total                  230891                       # number of overall hits
system.l3.ReadExReq_misses::cpu.data            62740                       # number of ReadExReq misses
system.l3.ReadExReq_misses::total               62740                       # number of ReadExReq misses
system.l3.ReadSharedReq_misses::cpu.inst          354                       # number of ReadSharedReq misses
system.l3.ReadSharedReq_misses::cpu.data       224747                       # number of ReadSharedReq misses
system.l3.ReadSharedReq_misses::total          225101                       # number of ReadSharedReq misses
system.l3.demand_misses::cpu.inst                 354                       # number of demand (read+write) misses
system.l3.demand_misses::cpu.data              287487                       # number of demand (read+write) misses
system.l3.demand_misses::total                 287841                       # number of demand (read+write) misses
system.l3.overall_misses::cpu.inst                354                       # number of overall misses
system.l3.overall_misses::cpu.data             287487                       # number of overall misses
system.l3.overall_misses::total                287841                       # number of overall misses
system.l3.ReadExReq_miss_latency::cpu.data  18755212000                       # number of ReadExReq miss cycles
system.l3.ReadExReq_miss_latency::total   18755212000                       # number of ReadExReq miss cycles
system.l3.ReadSharedReq_miss_latency::cpu.inst     60337000                       # number of ReadSharedReq miss cycles
system.l3.ReadSharedReq_miss_latency::cpu.data  91575914500                       # number of ReadSharedReq miss cycles
system.l3.ReadSharedReq_miss_latency::total  91636251500                       # number of ReadSharedReq miss cycles
system.l3.demand_miss_latency::cpu.inst      60337000                       # number of demand (read+write) miss cycles
system.l3.demand_miss_latency::cpu.data  110331126500                       # number of demand (read+write) miss cycles
system.l3.demand_miss_latency::total     110391463500                       # number of demand (read+write) miss cycles
system.l3.overall_miss_latency::cpu.inst     60337000                       # number of overall miss cycles
system.l3.overall_miss_latency::cpu.data 110331126500                       # number of overall miss cycles
system.l3.overall_miss_latency::total    110391463500                       # number of overall miss cycles
system.l3.WritebackDirty_accesses::writebacks       508273                       # number of WritebackDirty accesses(hits+misses)
system.l3.WritebackDirty_accesses::total       508273                       # number of WritebackDirty accesses(hits+misses)
system.l3.ReadExReq_accesses::cpu.data          63435                       # number of ReadExReq accesses(hits+misses)
system.l3.ReadExReq_accesses::total             63435                       # number of ReadExReq accesses(hits+misses)
system.l3.ReadSharedReq_accesses::cpu.inst          354                       # number of ReadSharedReq accesses(hits+misses)
system.l3.ReadSharedReq_accesses::cpu.data       454943                       # number of ReadSharedReq accesses(hits+misses)
system.l3.ReadSharedReq_accesses::total        455297                       # number of ReadSharedReq accesses(hits+misses)
system.l3.demand_accesses::cpu.inst               354                       # number of demand (read+write) accesses
system.l3.demand_accesses::cpu.data            518378                       # number of demand (read+write) accesses
system.l3.demand_accesses::total               518732                       # number of demand (read+write) accesses
system.l3.overall_accesses::cpu.inst              354                       # number of overall (read+write) accesses
system.l3.overall_accesses::cpu.data           518378                       # number of overall (read+write) accesses
system.l3.overall_accesses::total              518732                       # number of overall (read+write) accesses
system.l3.ReadExReq_miss_rate::cpu.data      0.989044                       # miss rate for ReadExReq accesses
system.l3.ReadExReq_miss_rate::total         0.989044                       # miss rate for ReadExReq accesses
system.l3.ReadSharedReq_miss_rate::cpu.inst            1                       # miss rate for ReadSharedReq accesses
system.l3.ReadSharedReq_miss_rate::cpu.data     0.494011                       # miss rate for ReadSharedReq accesses
system.l3.ReadSharedReq_miss_rate::total     0.494405                       # miss rate for ReadSharedReq accesses
system.l3.demand_miss_rate::cpu.inst                1                       # miss rate for demand accesses
system.l3.demand_miss_rate::cpu.data         0.554590                       # miss rate for demand accesses
system.l3.demand_miss_rate::total            0.554893                       # miss rate for demand accesses
system.l3.overall_miss_rate::cpu.inst               1                       # miss rate for overall accesses
system.l3.overall_miss_rate::cpu.data        0.554590                       # miss rate for overall accesses
system.l3.overall_miss_rate::total           0.554893                       # miss rate for overall accesses
system.l3.ReadExReq_avg_miss_latency::cpu.data 298935.479758                       # average ReadExReq miss latency
system.l3.ReadExReq_avg_miss_latency::total 298935.479758                       # average ReadExReq miss latency
system.l3.ReadSharedReq_avg_miss_latency::cpu.inst 170443.502825                       # average ReadSharedReq miss latency
system.l3.ReadSharedReq_avg_miss_latency::cpu.data 407462.233089                       # average ReadSharedReq miss latency
system.l3.ReadSharedReq_avg_miss_latency::total 407089.490940                       # average ReadSharedReq miss latency
system.l3.demand_avg_miss_latency::cpu.inst 170443.502825                       # average overall miss latency
system.l3.demand_avg_miss_latency::cpu.data 383777.793431                       # average overall miss latency
system.l3.demand_avg_miss_latency::total 383515.425183                       # average overall miss latency
system.l3.overall_avg_miss_latency::cpu.inst 170443.502825                       # average overall miss latency
system.l3.overall_avg_miss_latency::cpu.data 383777.793431                       # average overall miss latency
system.l3.overall_avg_miss_latency::total 383515.425183                       # average overall miss latency
system.l3.blocked_cycles::no_mshrs                  0                       # number of cycles access was blocked
system.l3.blocked_cycles::no_targets                0                       # number of cycles access was blocked
system.l3.blocked::no_mshrs                         0                       # number of cycles access was blocked
system.l3.blocked::no_targets                       0                       # number of cycles access was blocked
system.l3.avg_blocked_cycles::no_mshrs            nan                       # average number of cycles each access was blocked
system.l3.avg_blocked_cycles::no_targets          nan                       # average number of cycles each access was blocked
system.l3.writebacks::writebacks               264791                       # number of writebacks
system.l3.writebacks::total                    264791                       # number of writebacks
system.l3.CleanEvict_mshr_misses::writebacks           12                       # number of CleanEvict MSHR misses
system.l3.CleanEvict_mshr_misses::total            12                       # number of CleanEvict MSHR misses
system.l3.ReadExReq_mshr_misses::cpu.data        62740                       # number of ReadExReq MSHR misses
system.l3.ReadExReq_mshr_misses::total          62740                       # number of ReadExReq MSHR misses
system.l3.ReadSharedReq_mshr_misses::cpu.inst          354                       # number of ReadSharedReq MSHR misses
system.l3.ReadSharedReq_mshr_misses::cpu.data       224747                       # number of ReadSharedReq MSHR misses
system.l3.ReadSharedReq_mshr_misses::total       225101                       # number of ReadSharedReq MSHR misses
system.l3.demand_mshr_misses::cpu.inst            354                       # number of demand (read+write) MSHR misses
system.l3.demand_mshr_misses::cpu.data         287487                       # number of demand (read+write) MSHR misses
system.l3.demand_mshr_misses::total            287841                       # number of demand (read+write) MSHR misses
system.l3.overall_mshr_misses::cpu.inst           354                       # number of overall MSHR misses
system.l3.overall_mshr_misses::cpu.data        287487                       # number of overall MSHR misses
system.l3.overall_mshr_misses::total           287841                       # number of overall MSHR misses
system.l3.ReadExReq_mshr_miss_latency::cpu.data  17751372000                       # number of ReadExReq MSHR miss cycles
system.l3.ReadExReq_mshr_miss_latency::total  17751372000                       # number of ReadExReq MSHR miss cycles
system.l3.ReadSharedReq_mshr_miss_latency::cpu.inst     54673000                       # number of ReadSharedReq MSHR miss cycles
system.l3.ReadSharedReq_mshr_miss_latency::cpu.data  87979962500                       # number of ReadSharedReq MSHR miss cycles
system.l3.ReadSharedReq_mshr_miss_latency::total  88034635500                       # number of ReadSharedReq MSHR miss cycles
system.l3.demand_mshr_miss_latency::cpu.inst     54673000                       # number of demand (read+write) MSHR miss cycles
system.l3.demand_mshr_miss_latency::cpu.data 105731334500                       # number of demand (read+write) MSHR miss cycles
system.l3.demand_mshr_miss_latency::total 105786007500                       # number of demand (read+write) MSHR miss cycles
system.l3.overall_mshr_miss_latency::cpu.inst     54673000                       # number of overall MSHR miss cycles
system.l3.overall_mshr_miss_latency::cpu.data 105731334500                       # number of overall MSHR miss cycles
system.l3.overall_mshr_miss_latency::total 105786007500                       # number of overall MSHR miss cycles
system.l3.CleanEvict_mshr_miss_rate::writebacks          inf                       # mshr miss rate for CleanEvict accesses
system.l3.CleanEvict_mshr_miss_rate::total          inf                       # mshr miss rate for CleanEvict accesses
system.l3.ReadExReq_mshr_miss_rate::cpu.data     0.989044                       # mshr miss rate for ReadExReq accesses
system.l3.ReadExReq_mshr_miss_rate::total     0.989044                       # mshr miss rate for ReadExReq accesses
system.l3.ReadSharedReq_mshr_miss_rate::cpu.inst            1                       # mshr miss rate for ReadSharedReq accesses
system.l3.ReadSharedReq_mshr_miss_rate::cpu.data     0.494011                       # mshr miss rate for ReadSharedReq accesses
system.l3.ReadSharedReq_mshr_miss_rate::total     0.494405                       # mshr miss rate for ReadSharedReq accesses
system.l3.demand_mshr_miss_rate::cpu.inst            1                       # mshr miss rate for demand accesses
system.l3.demand_mshr_miss_rate::cpu.data     0.554590                       # mshr miss rate for demand accesses
system.l3.demand_mshr_miss_rate::total       0.554893                       # mshr miss rate for demand accesses
system.l3.overall_mshr_miss_rate::cpu.inst            1                       # mshr miss rate for overall accesses
system.l3.overall_mshr_miss_rate::cpu.data     0.554590                       # mshr miss rate for overall accesses
system.l3.overall_mshr_miss_rate::total      0.554893                       # mshr miss rate for overall accesses
system.l3.ReadExReq_avg_mshr_miss_latency::cpu.data 282935.479758                       # average ReadExReq mshr miss latency
system.l3.ReadExReq_avg_mshr_miss_latency::total 282935.479758                       # average ReadExReq mshr miss latency
system.l3.ReadSharedReq_avg_mshr_miss_latency::cpu.inst 154443.502825                       # average ReadSharedReq mshr miss latency
system.l3.ReadSharedReq_avg_mshr_miss_latency::cpu.data 391462.233089                       # average ReadSharedReq mshr miss latency
system.l3.ReadSharedReq_avg_mshr_miss_latency::total 391089.490940                       # average ReadSharedReq mshr miss latency
system.l3.demand_avg_mshr_miss_latency::cpu.inst 154443.502825                       # average overall mshr miss latency
system.l3.demand_avg_mshr_miss_latency::cpu.data 367777.793431                       # average overall mshr miss latency
system.l3.demand_avg_mshr_miss_latency::total 367515.425183                       # average overall mshr miss latency
system.l3.overall_avg_mshr_miss_latency::cpu.inst 154443.502825                       # average overall mshr miss latency
system.l3.overall_avg_mshr_miss_latency::cpu.data 367777.793431                       # average overall mshr miss latency
system.l3.overall_avg_mshr_miss_latency::total 367515.425183                       # average overall mshr miss latency
system.l3.replacements                         271471                       # number of replacements
system.membus.snoop_filter.tot_requests        559030                       # Total number of requests made to the snoop filter.
system.membus.snoop_filter.hit_single_requests       271189                       # Number of requests hitting in the snoop filter with a single holder of the requested data.
system.membus.snoop_filter.hit_multi_requests            0                       # Number of requests hitting in the snoop filter with multiple (>1) holders of the requested data.
system.membus.snoop_filter.tot_snoops               0                       # Total number of snoops made to the snoop filter.
system.membus.snoop_filter.hit_single_snoops            0                       # Number of snoops hitting in the snoop filter with a single holder of the requested data.
system.membus.snoop_filter.hit_multi_snoops            0                       # Number of snoops hitting in the snoop filter with multiple (>1) holders of the requested data.
system.membus.pwrStateResidencyTicks::UNDEFINED 1110345811000                       # Cumulative time (in ticks) in various power states
system.membus.trans_dist::ReadResp             225101                       # Transaction distribution
system.membus.trans_dist::WritebackDirty       264791                       # Transaction distribution
system.membus.trans_dist::CleanEvict             6398                       # Transaction distribution
system.membus.trans_dist::ReadExReq             62740                       # Transaction distribution
system.membus.trans_dist::ReadExResp            62740                       # Transaction distribution
system.membus.trans_dist::ReadSharedReq        225101                       # Transaction distribution
system.membus.pkt_count_system.l3.mem_side::system.mem_ctrls.port       846871                       # Packet count per connected master and slave (bytes)
system.membus.pkt_count_system.l3.mem_side::total       846871                       # Packet count per connected master and slave (bytes)
system.membus.pkt_count::total                 846871                       # Packet count per connected master and slave (bytes)
system.membus.pkt_size_system.l3.mem_side::system.mem_ctrls.port     35368448                       # Cumulative packet size per connected master and slave (bytes)
system.membus.pkt_size_system.l3.mem_side::total     35368448                       # Cumulative packet size per connected master and slave (bytes)
system.membus.pkt_size::total                35368448                       # Cumulative packet size per connected master and slave (bytes)
system.membus.snoops                                0                       # Total snoops (count)
system.membus.snoopTraffic                          0                       # Total snoop traffic (bytes)
system.membus.snoop_fanout::samples            287841                       # Request fanout histogram
system.membus.snoop_fanout::mean                    0                       # Request fanout histogram
system.membus.snoop_fanout::stdev                   0                       # Request fanout histogram
system.membus.snoop_fanout::underflows              0      0.00%      0.00% # Request fanout histogram
system.membus.snoop_fanout::0                  287841    100.00%    100.00% # Request fanout histogram
system.membus.snoop_fanout::1                       0      0.00%    100.00% # Request fanout histogram
system.membus.snoop_fanout::overflows               0      0.00%    100.00% # Request fanout histogram
system.membus.snoop_fanout::min_value               0                       # Request fanout histogram
system.membus.snoop_fanout::max_value               0                       # Request fanout histogram
system.membus.snoop_fanout::total              287841                       # Request fanout histogram
system.membus.reqLayer2.occupancy          1618194000                       # Layer occupancy (ticks)
system.membus.reqLayer2.utilization               0.1                       # Layer utilization (%)
system.membus.respLayer1.occupancy         1439205000                       # Layer occupancy (ticks)
system.membus.respLayer1.utilization              0.1                       # Layer utilization (%)
system.tol2bus.snoop_filter.tot_requests      1577323                       # Total number of requests made to the snoop filter.
system.tol2bus.snoop_filter.hit_single_requests       894362                       # Number of requests hitting in the snoop filter with a single holder of the requested data.
system.tol2bus.snoop_filter.hit_multi_requests            0                       # Number of requests hitting in the snoop filter with multiple (>1) holders of the requested data.
system.tol2bus.snoop_filter.tot_snoops            668                       # Total number of snoops made to the snoop filter.
system.tol2bus.snoop_filter.hit_single_snoops          668                       # Number of snoops hitting in the snoop filter with a single holder of the requested data.
system.tol2bus.snoop_filter.hit_multi_snoops            0                       # Number of snoops hitting in the snoop filter with multiple (>1) holders of the requested data.
system.tol2bus.pwrStateResidencyTicks::UNDEFINED 1110345811000                       # Cumulative time (in ticks) in various power states
system.tol2bus.trans_dist::ReadResp            616450                       # Transaction distribution
system.tol2bus.trans_dist::WritebackDirty      1165931                       # Transaction distribution
system.tol2bus.trans_dist::CleanEvict           33284                       # Transaction distribution
system.tol2bus.trans_dist::UpgradeReq          212219                       # Transaction distribution
system.tol2bus.trans_dist::UpgradeResp         212219                       # Transaction distribution
system.tol2bus.trans_dist::ReadExReq            66511                       # Transaction distribution
system.tol2bus.trans_dist::ReadExResp           66511                       # Transaction distribution
system.tol2bus.trans_dist::ReadSharedReq       616450                       # Transaction distribution
system.tol2bus.pkt_count_system.cpu.icache.mem_side::system.l2.cpu_side          756                       # Packet count per connected master and slave (bytes)
system.tol2bus.pkt_count_system.cpu.dcache.mem_side::system.l2.cpu_side      2471747                       # Packet count per connected master and slave (bytes)
system.tol2bus.pkt_count::total               2472503                       # Packet count per connected master and slave (bytes)
system.tol2bus.pkt_size_system.cpu.icache.mem_side::system.l2.cpu_side        22656                       # Cumulative packet size per connected master and slave (bytes)
system.tol2bus.pkt_size_system.cpu.dcache.mem_side::system.l2.cpu_side     85776960                       # Cumulative packet size per connected master and slave (bytes)
system.tol2bus.pkt_size::total               85799616                       # Cumulative packet size per connected master and slave (bytes)
system.tol2bus.snoops                          517072                       # Total snoops (count)
system.tol2bus.snoopTraffic                  32529472                       # Total snoop traffic (bytes)
system.tol2bus.snoop_fanout::samples          1412252                       # Request fanout histogram
system.tol2bus.snoop_fanout::mean            0.000473                       # Request fanout histogram
system.tol2bus.snoop_fanout::stdev           0.021744                       # Request fanout histogram
system.tol2bus.snoop_fanout::underflows             0      0.00%      0.00% # Request fanout histogram
system.tol2bus.snoop_fanout::0                1411584     99.95%     99.95% # Request fanout histogram
system.tol2bus.snoop_fanout::1                    668      0.05%    100.00% # Request fanout histogram
system.tol2bus.snoop_fanout::2                      0      0.00%    100.00% # Request fanout histogram
system.tol2bus.snoop_fanout::3                      0      0.00%    100.00% # Request fanout histogram
system.tol2bus.snoop_fanout::4                      0      0.00%    100.00% # Request fanout histogram
system.tol2bus.snoop_fanout::overflows              0      0.00%    100.00% # Request fanout histogram
system.tol2bus.snoop_fanout::min_value              0                       # Request fanout histogram
system.tol2bus.snoop_fanout::max_value              1                       # Request fanout histogram
system.tol2bus.snoop_fanout::total            1412252                       # Request fanout histogram
system.tol2bus.reqLayer0.occupancy         1446319500                       # Layer occupancy (ticks)
system.tol2bus.reqLayer0.utilization              0.1                       # Layer utilization (%)
system.tol2bus.respLayer0.occupancy            531000                       # Layer occupancy (ticks)
system.tol2bus.respLayer0.utilization             0.0                       # Layer utilization (%)
system.tol2bus.respLayer1.occupancy        1130020000                       # Layer occupancy (ticks)
system.tol2bus.respLayer1.utilization             0.1                       # Layer utilization (%)
system.tol3bus.snoop_filter.tot_requests      1035148                       # Total number of requests made to the snoop filter.
system.tol3bus.snoop_filter.hit_single_requests       516416                       # Number of requests hitting in the snoop filter with a single holder of the requested data.
system.tol3bus.snoop_filter.hit_multi_requests            0                       # Number of requests hitting in the snoop filter with multiple (>1) holders of the requested data.
system.tol3bus.snoop_filter.tot_snoops            294                       # Total number of snoops made to the snoop filter.
system.tol3bus.snoop_filter.hit_single_snoops          294                       # Number of snoops hitting in the snoop filter with a single holder of the requested data.
system.tol3bus.snoop_filter.hit_multi_snoops            0                       # Number of snoops hitting in the snoop filter with multiple (>1) holders of the requested data.
system.tol3bus.pwrStateResidencyTicks::UNDEFINED 1110345811000                       # Cumulative time (in ticks) in various power states
system.tol3bus.trans_dist::ReadResp            455297                       # Transaction distribution
system.tol3bus.trans_dist::WritebackDirty       773064                       # Transaction distribution
system.tol3bus.trans_dist::CleanEvict           14823                       # Transaction distribution
system.tol3bus.trans_dist::ReadExReq            63435                       # Transaction distribution
system.tol3bus.trans_dist::ReadExResp           63435                       # Transaction distribution
system.tol3bus.trans_dist::ReadSharedReq       455297                       # Transaction distribution
system.tol3bus.pkt_count_system.l2.mem_side::system.l3.cpu_side      1553880                       # Packet count per connected master and slave (bytes)
system.tol3bus.pkt_size_system.l2.mem_side::system.l3.cpu_side     65728320                       # Cumulative packet size per connected master and slave (bytes)
system.tol3bus.snoops                          271471                       # Total snoops (count)
system.tol3bus.snoopTraffic                  16946624                       # Total snoop traffic (bytes)
system.tol3bus.snoop_fanout::samples           790203                       # Request fanout histogram
system.tol3bus.snoop_fanout::mean            0.000372                       # Request fanout histogram
system.tol3bus.snoop_fanout::stdev           0.019285                       # Request fanout histogram
system.tol3bus.snoop_fanout::underflows             0      0.00%      0.00% # Request fanout histogram
system.tol3bus.snoop_fanout::0                 789909     99.96%     99.96% # Request fanout histogram
system.tol3bus.snoop_fanout::1                    294      0.04%    100.00% # Request fanout histogram
system.tol3bus.snoop_fanout::overflows              0      0.00%    100.00% # Request fanout histogram
system.tol3bus.snoop_fanout::min_value              0                       # Request fanout histogram
system.tol3bus.snoop_fanout::max_value              1                       # Request fanout histogram
system.tol3bus.snoop_fanout::total             790203                       # Request fanout histogram
system.tol3bus.reqLayer0.occupancy         1025847000                       # Layer occupancy (ticks)
system.tol3bus.reqLayer0.utilization              0.1                       # Layer utilization (%)
system.tol3bus.respLayer0.occupancy         778098000                       # Layer occupancy (ticks)
system.tol3bus.respLayer0.utilization             0.1                       # Layer utilization (%)

---------- End Simulation Statistics   ----------
